McPAT (version 1.0 of Aug, 2013) is computing the target processor...
 
Warning: ReorderBuffer array structure cannot satisfy latency constraint.
Warning: ReorderBuffer array structure cannot satisfy latency constraint.
Warning: ReorderBuffer array structure cannot satisfy latency constraint.
Warning: ReorderBuffer array structure cannot satisfy latency constraint.
Warning: ReorderBuffer array structure cannot satisfy latency constraint.
Warning: ReorderBuffer array structure cannot satisfy latency constraint.
Warning: ReorderBuffer array structure cannot satisfy latency constraint.
Warning: ReorderBuffer array structure cannot satisfy latency constraint.
Warning: ReorderBuffer array structure cannot satisfy latency constraint.
Warning: ReorderBuffer array structure cannot satisfy latency constraint.
Warning: ReorderBuffer array structure cannot satisfy latency constraint.
Warning: ReorderBuffer array structure cannot satisfy latency constraint.
Warning: ReorderBuffer array structure cannot satisfy latency constraint.
Warning: ReorderBuffer array structure cannot satisfy latency constraint.
Warning: ReorderBuffer array structure cannot satisfy latency constraint.
Warning: ReorderBuffer array structure cannot satisfy latency constraint.
Warning: ReorderBuffer array structure cannot satisfy latency constraint.
Warning: ReorderBuffer array structure cannot satisfy latency constraint.
Warning: ReorderBuffer array structure cannot satisfy latency constraint.
Warning: ReorderBuffer array structure cannot satisfy latency constraint.
Warning: ReorderBuffer array structure cannot satisfy latency constraint.
Warning: ReorderBuffer array structure cannot satisfy latency constraint.
Warning: ReorderBuffer array structure cannot satisfy latency constraint.
Warning: ReorderBuffer array structure cannot satisfy latency constraint.
Warning: ReorderBuffer array structure cannot satisfy latency constraint.
Warning: ReorderBuffer array structure cannot satisfy latency constraint.
Warning: ReorderBuffer array structure cannot satisfy latency constraint.
Warning: ReorderBuffer array structure cannot satisfy latency constraint.
Warning: ReorderBuffer array structure cannot satisfy latency constraint.
Warning: ReorderBuffer array structure cannot satisfy latency constraint.
Warning: ReorderBuffer array structure cannot satisfy latency constraint.
Warning: ReorderBuffer array structure cannot satisfy latency constraint.

McPAT (version 1.0 of Aug, 2013) results  (current print level is 5)
*****************************************************************************************
  Technology 22 nm
  Using Long Channel Devices When Appropriate
  Interconnect metal projection= aggressive interconnect technology projection
  Core clock Rate(MHz) 4100

*****************************************************************************************
Processor: 
  Area = 938.559 mm^2
  Peak Power = 4196.05 W
  Total Leakage = 24.5968 W
  Peak Dynamic = 4171.45 W
  Subthreshold Leakage = 24.1714 W
  Subthreshold Leakage with power gating = 12.4178 W
  Gate Leakage = 0.425334 W
  Runtime Dynamic = 67.5833 W

  Total Cores: 32 cores 
  Device Type= ITRS high performance device type
    Area = 822.12 mm^2
    Peak Dynamic = 4171.38 W
    Subthreshold Leakage = 21.6425 W
    Subthreshold Leakage with power gating = 10.824 W
    Gate Leakage = 0.419875 W
    Runtime Dynamic = 67.5578 W

  Total L3s: 
  Device Type= ITRS high performance device type
    Area = 113.584 mm^2
    Peak Dynamic = 0.0672267 W
    Subthreshold Leakage = 2.5046 W
    Subthreshold Leakage with power gating = 1.43505 W
    Gate Leakage = 0.00469644 W
    Runtime Dynamic = 0.0255546 W

  Total NoCs (Network/Bus): 
  Device Type= ITRS high performance device type
    Area = 2.85438 mm^2
    Peak Dynamic = 0 W
    Subthreshold Leakage = 0.0243787 W
    Subthreshold Leakage with power gating = 0.0109704 W
    Gate Leakage = 0.000762709 W
    Runtime Dynamic = 0 W

*****************************************************************************************
Core:
      Area = 25.6912 mm^2
      Peak Dynamic = 135.026 W
      Subthreshold Leakage = 0.676327 W
      Subthreshold Leakage with power gating = 0.338249 W
      Gate Leakage = 0.0131211 W
      Runtime Dynamic = 33.8318 W

      Instruction Fetch Unit:
        Area = 1.77831 mm^2
        Peak Dynamic = 3.44882 W
        Subthreshold Leakage = 0.0489032 W
        Subthreshold Leakage with power gating = 0.0244982 W
        Gate Leakage = 0.00106307 W
        Runtime Dynamic = 0.248776 W

          Instruction Cache:
            Area = 0.889009 mm^2
            Peak Dynamic = 2.39277 W
            Subthreshold Leakage = 0.0224541 W
            Subthreshold Leakage with power gating = 0.0118459 W
            Gate Leakage = 0.000572546 W
            Runtime Dynamic = 0.107862 W

          Branch Target Buffer:
            Area = 0.186524 mm^2
            Peak Dynamic = 0.059268 W
            Subthreshold Leakage = 0.00465747 W
            Subthreshold Leakage with power gating = 0.00270432 W
            Gate Leakage = 7.13769e-05 W
            Runtime Dynamic = 0.000913488 W

          Branch Predictor:
            Area = 0.036046 mm^2
            Peak Dynamic = 0.02117 W
            Subthreshold Leakage = 0.000991335 W
            Subthreshold Leakage with power gating = 0.000578338 W
            Gate Leakage = 1.31326e-05 W
            Runtime Dynamic = 0.000785018 W

              Global Predictor:
                Area = 0.0122599 mm^2
                Peak Dynamic = 0.00687234 W
                Subthreshold Leakage = 0.000368869 W
                Subthreshold Leakage with power gating = 0.000216136 W
                Gate Leakage = 4.75216e-06 W
                Runtime Dynamic = 0.000111561 W

              Local Predictor:
              L1_Local Predictor:
                Area = 0.00588309 mm^2
                Peak Dynamic = 0.0041416 W
                Subthreshold Leakage = 0.000195204 W
                Subthreshold Leakage with power gating = 0.000113194 W
                Gate Leakage = 2.68765e-06 W
                Runtime Dynamic = 6.90591e-05 W

              L2_Local Predictor:
                Area = 0.00299577 mm^2
                Peak Dynamic = 0.00205293 W
                Subthreshold Leakage = 0.000107724 W
                Subthreshold Leakage with power gating = 6.1471e-05 W
                Gate Leakage = 1.64109e-06 W
                Runtime Dynamic = 3.42265e-05 W

              Chooser:
                Area = 0.0122599 mm^2
                Peak Dynamic = 0.00687234 W
                Subthreshold Leakage = 0.000368869 W
                Subthreshold Leakage with power gating = 0.000216136 W
                Gate Leakage = 4.75216e-06 W
                Runtime Dynamic = 0.000111561 W

              RAS:
                Area = 0.00264738 mm^2
                Peak Dynamic = 0.00328372 W
                Subthreshold Leakage = 5.83929e-05 W
                Subthreshold Leakage with power gating = 3.28722e-05 W
                Gate Leakage = 9.40608e-07 W
                Runtime Dynamic = 0.000492836 W

          Instruction Buffer:
            Area = 0.00953762 mm^2
            Peak Dynamic = 0.530088 W
            Subthreshold Leakage = 0.000136711 W
            Subthreshold Leakage with power gating = 7.09986e-05 W
            Gate Leakage = 2.25735e-06 W
            Runtime Dynamic = 0.0699555 W

          Instruction Decoder:
            Area = 0.640954 mm^2
            Peak Dynamic = 0.349878 W
            Subthreshold Leakage = 0.0191833 W
            Subthreshold Leakage with power gating = 0.00863248 W
            Gate Leakage = 0.000321652 W
            Runtime Dynamic = 0.06926 W

      Renaming Unit:
        Area = 0.398932 mm^2
        Peak Dynamic = 8.69359 W
        Subthreshold Leakage = 0.0109372 W
        Subthreshold Leakage with power gating = 0.00606856 W
        Gate Leakage = 0.000384701 W
        Runtime Dynamic = 1.46456 W

          Int Front End RAT:
            Area = 0.21217 mm^2
            Peak Dynamic = 7.13042 W
            Subthreshold Leakage = 0.00602709 W
            Subthreshold Leakage with power gating = 0.00343544 W
            Gate Leakage = 0.00019896 W
            Runtime Dynamic = 1.40363 W

          FP Front End RAT:
            Area = 0.0680121 mm^2
            Peak Dynamic = 1.35733 W
            Subthreshold Leakage = 0.00307484 W
            Subthreshold Leakage with power gating = 0.00175266 W
            Gate Leakage = 9.92553e-05 W
            Runtime Dynamic = 0.016406 W

          Free List:
            Area = 0.102513 mm^2
            Peak Dynamic = 0.110214 W
            Subthreshold Leakage = 0.000354903 W
            Subthreshold Leakage with power gating = 0.000214298 W
            Gate Leakage = 4.37705e-06 W
            Runtime Dynamic = 0.0445229 W

      Load Store Unit:
        Area = 3.82362 mm^2
        Peak Dynamic = 2.32402 W
        Subthreshold Leakage = 0.0568103 W
        Subthreshold Leakage with power gating = 0.0282651 W
        Gate Leakage = 0.00100861 W
        Runtime Dynamic = 1.36571 W

          Data Cache:
            Area = 3.1028 mm^2
            Peak Dynamic = 2.20032 W
            Subthreshold Leakage = 0.0540038 W
            Subthreshold Leakage with power gating = 0.0268431 W
            Gate Leakage = 0.000899052 W
            Runtime Dynamic = 1.24328 W

          LoadQ:
            Area = 0.0208402 mm^2
            Peak Dynamic = 0.0345581 W
            Subthreshold Leakage = 0.000561618 W
            Subthreshold Leakage with power gating = 0.000320122 W
            Gate Leakage = 1.1987e-05 W
            Runtime Dynamic = 0.0345581 W

          StoreQ:
            Area = 0.0248506 mm^2
            Peak Dynamic = 0.0439358 W
            Subthreshold Leakage = 0.000764494 W
            Subthreshold Leakage with power gating = 0.000435762 W
            Gate Leakage = 1.54675e-05 W
            Runtime Dynamic = 0.0878716 W

      Memory Management Unit:
        Area = 0.0534534 mm^2
        Peak Dynamic = 0.128172 W
        Subthreshold Leakage = 0.0028353 W
        Subthreshold Leakage with power gating = 0.00143848 W
        Gate Leakage = 0.000108584 W
        Runtime Dynamic = 0.0292543 W

          Itlb:
            Area = 0.0153781 mm^2
            Peak Dynamic = 0.031693 W
            Subthreshold Leakage = 0.000525402 W
            Subthreshold Leakage with power gating = 0.000299479 W
            Gate Leakage = 1.04742e-05 W
            Runtime Dynamic = 0.00297145 W

          Dtlb:
            Area = 0.0218389 mm^2
            Peak Dynamic = 0.0260561 W
            Subthreshold Leakage = 0.000829526 W
            Subthreshold Leakage with power gating = 0.00047283 W
            Gate Leakage = 1.60011e-05 W
            Runtime Dynamic = 0.0262828 W

      Execution Unit:
        Area = 12.5101 mm^2
        Peak Dynamic = 120.407 W
        Subthreshold Leakage = 0.263602 W
        Subthreshold Leakage with power gating = 0.120668 W
        Gate Leakage = 0.00812329 W
        Runtime Dynamic = 30.7112 W

          Register Files:
            Area = 0.274572 mm^2
            Peak Dynamic = 0.066205 W
            Subthreshold Leakage = 0.0011996 W
            Subthreshold Leakage with power gating = 0.000558105 W
            Gate Leakage = 2.52418e-05 W
            Runtime Dynamic = 0.0610247 W

              Integer RF:
                Area = 0.175302 mm^2
                Peak Dynamic = 0.0591032 W
                Subthreshold Leakage = 0.000764222 W
                Subthreshold Leakage with power gating = 0.0003514 W
                Gate Leakage = 1.6485e-05 W
                Runtime Dynamic = 0.0541016 W

              Floating Point RF:
                Area = 0.0992699 mm^2
                Peak Dynamic = 0.00710171 W
                Subthreshold Leakage = 0.000435376 W
                Subthreshold Leakage with power gating = 0.000206704 W
                Gate Leakage = 8.75685e-06 W
                Runtime Dynamic = 0.0069231 W

          Instruction Scheduler:
            Area = 10.6135 mm^2
            Peak Dynamic = 119.985 W
            Subthreshold Leakage = 0.192581 W
            Subthreshold Leakage with power gating = 0.0886908 W
            Gate Leakage = 0.00650973 W
            Runtime Dynamic = 29.3759 W

              Instruction Window:
                Area = 0.601548 mm^2
                Peak Dynamic = 1.48955 W
                Subthreshold Leakage = 0.0124658 W
                Subthreshold Leakage with power gating = 0.00710224 W
                Gate Leakage = 0.000274914 W
                Runtime Dynamic = 0.384346 W

              FP Instruction Window:
                Area = 0.084547 mm^2
                Peak Dynamic = 0.391146 W
                Subthreshold Leakage = 0.0011635 W
                Subthreshold Leakage with power gating = 0.000659943 W
                Gate Leakage = 2.63293e-05 W
                Runtime Dynamic = 0.150124 W

              ROB:
                Area = 9.92741 mm^2
                Peak Dynamic = 118.104 W
                Subthreshold Leakage = 0.178952 W
                Subthreshold Leakage with power gating = 0.0809286 W
                Gate Leakage = 0.00620849 W
                Runtime Dynamic = 28.8415 W

          Integer ALUs (Count: 9 ):
            Area = 0.34609 mm^2
            Peak Dynamic = 0.149196 W
            Subthreshold Leakage = 0.0261022 W
            Subthreshold Leakage with power gating = 0.011746 W
            Gate Leakage = 0.000575286 W
            Runtime Dynamic = 0.220405 W

          Floating Point Units (FPUs) (Count: 2 ):
            Area = 1.11344 mm^2
            Peak Dynamic = 0.0211185 W
            Subthreshold Leakage = 0.020994 W
            Subthreshold Leakage with power gating = 0.0094473 W
            Gate Leakage = 0.000462702 W
            Runtime Dynamic = 0.142985 W

          Complex ALUs (Mul/Div) (Count: 1 ):
            Area = 0.115363 mm^2
            Peak Dynamic = 0.0067106 W
            Subthreshold Leakage = 0.00870074 W
            Subthreshold Leakage with power gating = 0.00391533 W
            Gate Leakage = 0.000191762 W
            Runtime Dynamic = 0.094289 W

          Results Broadcast Bus:
            Area Overhead = 0.030867 mm^2
            Peak Dynamic = 0.166611 W
            Subthreshold Leakage = 0.0125437 W
            Subthreshold Leakage with power gating = 0.00564468 W
            Gate Leakage = 0.000276461 W
            Runtime Dynamic = 0.816595 W

    L2
    Area = 4.97248 mm^2
    Peak Dynamic = 0.0239226 W
    Subthreshold Leakage = 0.211997 W
    Subthreshold Leakage with power gating = 0.120751 W
    Gate Leakage = 0.00064227 W
    Runtime Dynamic = 0.0122661 W

*****************************************************************************************
Core:
      Area = 25.6912 mm^2
      Peak Dynamic = 134.216 W
      Subthreshold Leakage = 0.676327 W
      Subthreshold Leakage with power gating = 0.338249 W
      Gate Leakage = 0.0131211 W
      Runtime Dynamic = 25.6832 W

      Instruction Fetch Unit:
        Area = 1.77831 mm^2
        Peak Dynamic = 3.44882 W
        Subthreshold Leakage = 0.0489032 W
        Subthreshold Leakage with power gating = 0.0244982 W
        Gate Leakage = 0.00106307 W
        Runtime Dynamic = 0.226259 W

          Instruction Cache:
            Area = 0.889009 mm^2
            Peak Dynamic = 2.39277 W
            Subthreshold Leakage = 0.0224541 W
            Subthreshold Leakage with power gating = 0.0118459 W
            Gate Leakage = 0.000572546 W
            Runtime Dynamic = 0.106593 W

          Branch Target Buffer:
            Area = 0.186524 mm^2
            Peak Dynamic = 0.059268 W
            Subthreshold Leakage = 0.00465747 W
            Subthreshold Leakage with power gating = 0.00270432 W
            Gate Leakage = 7.13769e-05 W
            Runtime Dynamic = 0.000887435 W

          Branch Predictor:
            Area = 0.036046 mm^2
            Peak Dynamic = 0.02117 W
            Subthreshold Leakage = 0.000991335 W
            Subthreshold Leakage with power gating = 0.000578338 W
            Gate Leakage = 1.31326e-05 W
            Runtime Dynamic = 0.000701804 W

              Global Predictor:
                Area = 0.0122599 mm^2
                Peak Dynamic = 0.00687234 W
                Subthreshold Leakage = 0.000368869 W
                Subthreshold Leakage with power gating = 0.000216136 W
                Gate Leakage = 4.75216e-06 W
                Runtime Dynamic = 0.000108363 W

              Local Predictor:
              L1_Local Predictor:
                Area = 0.00588309 mm^2
                Peak Dynamic = 0.0041416 W
                Subthreshold Leakage = 0.000195204 W
                Subthreshold Leakage with power gating = 0.000113194 W
                Gate Leakage = 2.68765e-06 W
                Runtime Dynamic = 6.70744e-05 W

              L2_Local Predictor:
                Area = 0.00299577 mm^2
                Peak Dynamic = 0.00205293 W
                Subthreshold Leakage = 0.000107724 W
                Subthreshold Leakage with power gating = 6.1471e-05 W
                Gate Leakage = 1.64109e-06 W
                Runtime Dynamic = 3.32428e-05 W

              Chooser:
                Area = 0.0122599 mm^2
                Peak Dynamic = 0.00687234 W
                Subthreshold Leakage = 0.000368869 W
                Subthreshold Leakage with power gating = 0.000216136 W
                Gate Leakage = 4.75216e-06 W
                Runtime Dynamic = 0.000108363 W

              RAS:
                Area = 0.00264738 mm^2
                Peak Dynamic = 0.00328372 W
                Subthreshold Leakage = 5.83929e-05 W
                Subthreshold Leakage with power gating = 3.28722e-05 W
                Gate Leakage = 9.40608e-07 W
                Runtime Dynamic = 0.000418003 W

          Instruction Buffer:
            Area = 0.00953762 mm^2
            Peak Dynamic = 0.530088 W
            Subthreshold Leakage = 0.000136711 W
            Subthreshold Leakage with power gating = 7.09986e-05 W
            Gate Leakage = 2.25735e-06 W
            Runtime Dynamic = 0.0593333 W

          Instruction Decoder:
            Area = 0.640954 mm^2
            Peak Dynamic = 0.349878 W
            Subthreshold Leakage = 0.0191833 W
            Subthreshold Leakage with power gating = 0.00863248 W
            Gate Leakage = 0.000321652 W
            Runtime Dynamic = 0.0587434 W

      Renaming Unit:
        Area = 0.398932 mm^2
        Peak Dynamic = 8.69359 W
        Subthreshold Leakage = 0.0109372 W
        Subthreshold Leakage with power gating = 0.00606856 W
        Gate Leakage = 0.000384701 W
        Runtime Dynamic = 1.24327 W

          Int Front End RAT:
            Area = 0.21217 mm^2
            Peak Dynamic = 7.13042 W
            Subthreshold Leakage = 0.00602709 W
            Subthreshold Leakage with power gating = 0.00343544 W
            Gate Leakage = 0.00019896 W
            Runtime Dynamic = 1.18956 W

          FP Front End RAT:
            Area = 0.0680121 mm^2
            Peak Dynamic = 1.35733 W
            Subthreshold Leakage = 0.00307484 W
            Subthreshold Leakage with power gating = 0.00175266 W
            Gate Leakage = 9.92553e-05 W
            Runtime Dynamic = 0.0158489 W

          Free List:
            Area = 0.102513 mm^2
            Peak Dynamic = 0.110214 W
            Subthreshold Leakage = 0.000354903 W
            Subthreshold Leakage with power gating = 0.000214298 W
            Gate Leakage = 4.37705e-06 W
            Runtime Dynamic = 0.0378671 W

      Load Store Unit:
        Area = 3.82362 mm^2
        Peak Dynamic = 1.59629 W
        Subthreshold Leakage = 0.0568103 W
        Subthreshold Leakage with power gating = 0.0282651 W
        Gate Leakage = 0.00100861 W
        Runtime Dynamic = 0.840645 W

          Data Cache:
            Area = 3.1028 mm^2
            Peak Dynamic = 1.51901 W
            Subthreshold Leakage = 0.0540038 W
            Subthreshold Leakage with power gating = 0.0268431 W
            Gate Leakage = 0.000899052 W
            Runtime Dynamic = 0.764158 W

          LoadQ:
            Area = 0.0208402 mm^2
            Peak Dynamic = 0.0215901 W
            Subthreshold Leakage = 0.000561618 W
            Subthreshold Leakage with power gating = 0.000320122 W
            Gate Leakage = 1.1987e-05 W
            Runtime Dynamic = 0.0215901 W

          StoreQ:
            Area = 0.0248506 mm^2
            Peak Dynamic = 0.0274488 W
            Subthreshold Leakage = 0.000764494 W
            Subthreshold Leakage with power gating = 0.000435762 W
            Gate Leakage = 1.54675e-05 W
            Runtime Dynamic = 0.0548976 W

      Memory Management Unit:
        Area = 0.0534534 mm^2
        Peak Dynamic = 0.109912 W
        Subthreshold Leakage = 0.0028353 W
        Subthreshold Leakage with power gating = 0.00143848 W
        Gate Leakage = 0.000108584 W
        Runtime Dynamic = 0.0193796 W

          Itlb:
            Area = 0.0153781 mm^2
            Peak Dynamic = 0.031693 W
            Subthreshold Leakage = 0.000525402 W
            Subthreshold Leakage with power gating = 0.000299479 W
            Gate Leakage = 1.04742e-05 W
            Runtime Dynamic = 0.00293664 W

          Dtlb:
            Area = 0.0218389 mm^2
            Peak Dynamic = 0.0162785 W
            Subthreshold Leakage = 0.000829526 W
            Subthreshold Leakage with power gating = 0.00047283 W
            Gate Leakage = 1.60011e-05 W
            Runtime Dynamic = 0.0164429 W

      Execution Unit:
        Area = 12.5101 mm^2
        Peak Dynamic = 120.35 W
        Subthreshold Leakage = 0.263602 W
        Subthreshold Leakage with power gating = 0.120668 W
        Gate Leakage = 0.00812329 W
        Runtime Dynamic = 23.3484 W

          Register Files:
            Area = 0.274572 mm^2
            Peak Dynamic = 0.0577709 W
            Subthreshold Leakage = 0.0011996 W
            Subthreshold Leakage with power gating = 0.000558105 W
            Gate Leakage = 2.52418e-05 W
            Runtime Dynamic = 0.0517586 W

              Integer RF:
                Area = 0.175302 mm^2
                Peak Dynamic = 0.0509104 W
                Subthreshold Leakage = 0.000764222 W
                Subthreshold Leakage with power gating = 0.0003514 W
                Gate Leakage = 1.6485e-05 W
                Runtime Dynamic = 0.0458867 W

              Floating Point RF:
                Area = 0.0992699 mm^2
                Peak Dynamic = 0.00686052 W
                Subthreshold Leakage = 0.000435376 W
                Subthreshold Leakage with power gating = 0.000206704 W
                Gate Leakage = 8.75685e-06 W
                Runtime Dynamic = 0.00587189 W

          Instruction Scheduler:
            Area = 10.6135 mm^2
            Peak Dynamic = 119.985 W
            Subthreshold Leakage = 0.192581 W
            Subthreshold Leakage with power gating = 0.0886908 W
            Gate Leakage = 0.00650973 W
            Runtime Dynamic = 22.265 W

              Instruction Window:
                Area = 0.601548 mm^2
                Peak Dynamic = 1.48955 W
                Subthreshold Leakage = 0.0124658 W
                Subthreshold Leakage with power gating = 0.00710224 W
                Gate Leakage = 0.000274914 W
                Runtime Dynamic = 0.325986 W

              FP Instruction Window:
                Area = 0.084547 mm^2
                Peak Dynamic = 0.391146 W
                Subthreshold Leakage = 0.0011635 W
                Subthreshold Leakage with power gating = 0.000659943 W
                Gate Leakage = 2.63293e-05 W
                Runtime Dynamic = 0.127329 W

              ROB:
                Area = 9.92741 mm^2
                Peak Dynamic = 118.104 W
                Subthreshold Leakage = 0.178952 W
                Subthreshold Leakage with power gating = 0.0809286 W
                Gate Leakage = 0.00620849 W
                Runtime Dynamic = 21.8117 W

          Integer ALUs (Count: 9 ):
            Area = 0.34609 mm^2
            Peak Dynamic = 0.126175 W
            Subthreshold Leakage = 0.0261022 W
            Subthreshold Leakage with power gating = 0.011746 W
            Gate Leakage = 0.000575286 W
            Runtime Dynamic = 0.176541 W

          Floating Point Units (FPUs) (Count: 2 ):
            Area = 1.11344 mm^2
            Peak Dynamic = 0.0204012 W
            Subthreshold Leakage = 0.020994 W
            Subthreshold Leakage with power gating = 0.0094473 W
            Gate Leakage = 0.000462702 W
            Runtime Dynamic = 0.142681 W

          Complex ALUs (Mul/Div) (Count: 1 ):
            Area = 0.115363 mm^2
            Peak Dynamic = 0.00652922 W
            Subthreshold Leakage = 0.00870074 W
            Subthreshold Leakage with power gating = 0.00391533 W
            Gate Leakage = 0.000191762 W
            Runtime Dynamic = 0.0941559 W

          Results Broadcast Bus:
            Area Overhead = 0.030867 mm^2
            Peak Dynamic = 0.143831 W
            Subthreshold Leakage = 0.0125437 W
            Subthreshold Leakage with power gating = 0.00564468 W
            Gate Leakage = 0.000276461 W
            Runtime Dynamic = 0.618185 W

    L2
    Area = 4.97248 mm^2
    Peak Dynamic = 0.0173477 W
    Subthreshold Leakage = 0.211997 W
    Subthreshold Leakage with power gating = 0.120751 W
    Gate Leakage = 0.00064227 W
    Runtime Dynamic = 0.00529114 W

*****************************************************************************************
Core:
      Area = 25.6912 mm^2
      Peak Dynamic = 130.071 W
      Subthreshold Leakage = 0.676327 W
      Subthreshold Leakage with power gating = 0.338249 W
      Gate Leakage = 0.0131211 W
      Runtime Dynamic = 0.268092 W

      Instruction Fetch Unit:
        Area = 1.77831 mm^2
        Peak Dynamic = 0.960404 W
        Subthreshold Leakage = 0.0489032 W
        Subthreshold Leakage with power gating = 0.0244982 W
        Gate Leakage = 0.00106307 W
        Runtime Dynamic = 3.80773e-11 W

          Instruction Cache:
            Area = 0.889009 mm^2
            Peak Dynamic = 0 W
            Subthreshold Leakage = 0.0224541 W
            Subthreshold Leakage with power gating = 0.0118459 W
            Gate Leakage = 0.000572546 W
            Runtime Dynamic = 0 W

          Branch Target Buffer:
            Area = 0.186524 mm^2
            Peak Dynamic = 0.059268 W
            Subthreshold Leakage = 0.00465747 W
            Subthreshold Leakage with power gating = 0.00270432 W
            Gate Leakage = 7.13769e-05 W
            Runtime Dynamic = 0 W

          Branch Predictor:
            Area = 0.036046 mm^2
            Peak Dynamic = 0.02117 W
            Subthreshold Leakage = 0.000991335 W
            Subthreshold Leakage with power gating = 0.000578338 W
            Gate Leakage = 1.31326e-05 W
            Runtime Dynamic = 0 W

              Global Predictor:
                Area = 0.0122599 mm^2
                Peak Dynamic = 0.00687234 W
                Subthreshold Leakage = 0.000368869 W
                Subthreshold Leakage with power gating = 0.000216136 W
                Gate Leakage = 4.75216e-06 W
                Runtime Dynamic = 0 W

              Local Predictor:
              L1_Local Predictor:
                Area = 0.00588309 mm^2
                Peak Dynamic = 0.0041416 W
                Subthreshold Leakage = 0.000195204 W
                Subthreshold Leakage with power gating = 0.000113194 W
                Gate Leakage = 2.68765e-06 W
                Runtime Dynamic = 0 W

              L2_Local Predictor:
                Area = 0.00299577 mm^2
                Peak Dynamic = 0.00205293 W
                Subthreshold Leakage = 0.000107724 W
                Subthreshold Leakage with power gating = 6.1471e-05 W
                Gate Leakage = 1.64109e-06 W
                Runtime Dynamic = 0 W

              Chooser:
                Area = 0.0122599 mm^2
                Peak Dynamic = 0.00687234 W
                Subthreshold Leakage = 0.000368869 W
                Subthreshold Leakage with power gating = 0.000216136 W
                Gate Leakage = 4.75216e-06 W
                Runtime Dynamic = 0 W

              RAS:
                Area = 0.00264738 mm^2
                Peak Dynamic = 0.00328372 W
                Subthreshold Leakage = 5.83929e-05 W
                Subthreshold Leakage with power gating = 3.28722e-05 W
                Gate Leakage = 9.40608e-07 W
                Runtime Dynamic = 0 W

          Instruction Buffer:
            Area = 0.00953762 mm^2
            Peak Dynamic = 0.530088 W
            Subthreshold Leakage = 0.000136711 W
            Subthreshold Leakage with power gating = 7.09986e-05 W
            Gate Leakage = 2.25735e-06 W
            Runtime Dynamic = 0 W

          Instruction Decoder:
            Area = 0.640954 mm^2
            Peak Dynamic = 0.349878 W
            Subthreshold Leakage = 0.0191833 W
            Subthreshold Leakage with power gating = 0.00863248 W
            Gate Leakage = 0.000321652 W
            Runtime Dynamic = 0 W

      Renaming Unit:
        Area = 0.398932 mm^2
        Peak Dynamic = 8.69359 W
        Subthreshold Leakage = 0.0109372 W
        Subthreshold Leakage with power gating = 0.00606856 W
        Gate Leakage = 0.000384701 W
        Runtime Dynamic = 3.80773e-11 W

          Int Front End RAT:
            Area = 0.21217 mm^2
            Peak Dynamic = 7.13042 W
            Subthreshold Leakage = 0.00602709 W
            Subthreshold Leakage with power gating = 0.00343544 W
            Gate Leakage = 0.00019896 W
            Runtime Dynamic = 0 W

          FP Front End RAT:
            Area = 0.0680121 mm^2
            Peak Dynamic = 1.35733 W
            Subthreshold Leakage = 0.00307484 W
            Subthreshold Leakage with power gating = 0.00175266 W
            Gate Leakage = 9.92553e-05 W
            Runtime Dynamic = 0 W

          Free List:
            Area = 0.102513 mm^2
            Peak Dynamic = 0.110214 W
            Subthreshold Leakage = 0.000354903 W
            Subthreshold Leakage with power gating = 0.000214298 W
            Gate Leakage = 4.37705e-06 W
            Runtime Dynamic = 0 W

      Load Store Unit:
        Area = 3.82362 mm^2
        Peak Dynamic = 0.384698 W
        Subthreshold Leakage = 0.0568103 W
        Subthreshold Leakage with power gating = 0.0282651 W
        Gate Leakage = 0.00100861 W
        Runtime Dynamic = 3.80773e-11 W

          Data Cache:
            Area = 3.1028 mm^2
            Peak Dynamic = 0.384698 W
            Subthreshold Leakage = 0.0540038 W
            Subthreshold Leakage with power gating = 0.0268431 W
            Gate Leakage = 0.000899052 W
            Runtime Dynamic = 0 W

          LoadQ:
            Area = 0.0208402 mm^2
            Peak Dynamic = 0 W
            Subthreshold Leakage = 0.000561618 W
            Subthreshold Leakage with power gating = 0.000320122 W
            Gate Leakage = 1.1987e-05 W
            Runtime Dynamic = 0 W

          StoreQ:
            Area = 0.0248506 mm^2
            Peak Dynamic = 0 W
            Subthreshold Leakage = 0.000764494 W
            Subthreshold Leakage with power gating = 0.000435762 W
            Gate Leakage = 1.54675e-05 W
            Runtime Dynamic = 0 W

      Memory Management Unit:
        Area = 0.0534534 mm^2
        Peak Dynamic = 0.0478185 W
        Subthreshold Leakage = 0.0028353 W
        Subthreshold Leakage with power gating = 0.00143848 W
        Gate Leakage = 0.000108584 W
        Runtime Dynamic = 3.80773e-11 W

          Itlb:
            Area = 0.0153781 mm^2
            Peak Dynamic = 0 W
            Subthreshold Leakage = 0.000525402 W
            Subthreshold Leakage with power gating = 0.000299479 W
            Gate Leakage = 1.04742e-05 W
            Runtime Dynamic = 0 W

          Dtlb:
            Area = 0.0218389 mm^2
            Peak Dynamic = 0 W
            Subthreshold Leakage = 0.000829526 W
            Subthreshold Leakage with power gating = 0.00047283 W
            Gate Leakage = 1.60011e-05 W
            Runtime Dynamic = 0 W

      Execution Unit:
        Area = 12.5101 mm^2
        Peak Dynamic = 119.985 W
        Subthreshold Leakage = 0.263602 W
        Subthreshold Leakage with power gating = 0.120668 W
        Gate Leakage = 0.00812329 W
        Runtime Dynamic = 0.268092 W

          Register Files:
            Area = 0.274572 mm^2
            Peak Dynamic = 0 W
            Subthreshold Leakage = 0.0011996 W
            Subthreshold Leakage with power gating = 0.000558105 W
            Gate Leakage = 2.52418e-05 W
            Runtime Dynamic = 0 W

              Integer RF:
                Area = 0.175302 mm^2
                Peak Dynamic = 0 W
                Subthreshold Leakage = 0.000764222 W
                Subthreshold Leakage with power gating = 0.0003514 W
                Gate Leakage = 1.6485e-05 W
                Runtime Dynamic = 0 W

              Floating Point RF:
                Area = 0.0992699 mm^2
                Peak Dynamic = 0 W
                Subthreshold Leakage = 0.000435376 W
                Subthreshold Leakage with power gating = 0.000206704 W
                Gate Leakage = 8.75685e-06 W
                Runtime Dynamic = 0 W

          Instruction Scheduler:
            Area = 10.6135 mm^2
            Peak Dynamic = 119.985 W
            Subthreshold Leakage = 0.192581 W
            Subthreshold Leakage with power gating = 0.0886908 W
            Gate Leakage = 0.00650973 W
            Runtime Dynamic = 0 W

              Instruction Window:
                Area = 0.601548 mm^2
                Peak Dynamic = 1.48955 W
                Subthreshold Leakage = 0.0124658 W
                Subthreshold Leakage with power gating = 0.00710224 W
                Gate Leakage = 0.000274914 W
                Runtime Dynamic = 0 W

              FP Instruction Window:
                Area = 0.084547 mm^2
                Peak Dynamic = 0.391146 W
                Subthreshold Leakage = 0.0011635 W
                Subthreshold Leakage with power gating = 0.000659943 W
                Gate Leakage = 2.63293e-05 W
                Runtime Dynamic = 0 W

              ROB:
                Area = 9.92741 mm^2
                Peak Dynamic = 118.104 W
                Subthreshold Leakage = 0.178952 W
                Subthreshold Leakage with power gating = 0.0809286 W
                Gate Leakage = 0.00620849 W
                Runtime Dynamic = 0 W

          Integer ALUs (Count: 9 ):
            Area = 0.34609 mm^2
            Peak Dynamic = 0 W
            Subthreshold Leakage = 0.0261022 W
            Subthreshold Leakage with power gating = 0.011746 W
            Gate Leakage = 0.000575286 W
            Runtime Dynamic = 0.044682 W

          Floating Point Units (FPUs) (Count: 2 ):
            Area = 1.11344 mm^2
            Peak Dynamic = 0 W
            Subthreshold Leakage = 0.020994 W
            Subthreshold Leakage with power gating = 0.0094473 W
            Gate Leakage = 0.000462702 W
            Runtime Dynamic = 0.134046 W

          Complex ALUs (Mul/Div) (Count: 1 ):
            Area = 0.115363 mm^2
            Peak Dynamic = 0 W
            Subthreshold Leakage = 0.00870074 W
            Subthreshold Leakage with power gating = 0.00391533 W
            Gate Leakage = 0.000191762 W
            Runtime Dynamic = 0.0893639 W

          Results Broadcast Bus:
            Area Overhead = 0.030867 mm^2
            Peak Dynamic = 0 W
            Subthreshold Leakage = 0.0125437 W
            Subthreshold Leakage with power gating = 0.00564468 W
            Gate Leakage = 0.000276461 W
            Runtime Dynamic = 0 W

    L2
    Area = 4.97248 mm^2
    Peak Dynamic = 0 W
    Subthreshold Leakage = 0.211997 W
    Subthreshold Leakage with power gating = 0.120751 W
    Gate Leakage = 0.00064227 W
    Runtime Dynamic = 2.49066e-10 W

*****************************************************************************************
Core:
      Area = 25.6912 mm^2
      Peak Dynamic = 130.071 W
      Subthreshold Leakage = 0.676327 W
      Subthreshold Leakage with power gating = 0.338249 W
      Gate Leakage = 0.0131211 W
      Runtime Dynamic = 0.268092 W

      Instruction Fetch Unit:
        Area = 1.77831 mm^2
        Peak Dynamic = 0.960404 W
        Subthreshold Leakage = 0.0489032 W
        Subthreshold Leakage with power gating = 0.0244982 W
        Gate Leakage = 0.00106307 W
        Runtime Dynamic = 3.80773e-11 W

          Instruction Cache:
            Area = 0.889009 mm^2
            Peak Dynamic = 0 W
            Subthreshold Leakage = 0.0224541 W
            Subthreshold Leakage with power gating = 0.0118459 W
            Gate Leakage = 0.000572546 W
            Runtime Dynamic = 0 W

          Branch Target Buffer:
            Area = 0.186524 mm^2
            Peak Dynamic = 0.059268 W
            Subthreshold Leakage = 0.00465747 W
            Subthreshold Leakage with power gating = 0.00270432 W
            Gate Leakage = 7.13769e-05 W
            Runtime Dynamic = 0 W

          Branch Predictor:
            Area = 0.036046 mm^2
            Peak Dynamic = 0.02117 W
            Subthreshold Leakage = 0.000991335 W
            Subthreshold Leakage with power gating = 0.000578338 W
            Gate Leakage = 1.31326e-05 W
            Runtime Dynamic = 0 W

              Global Predictor:
                Area = 0.0122599 mm^2
                Peak Dynamic = 0.00687234 W
                Subthreshold Leakage = 0.000368869 W
                Subthreshold Leakage with power gating = 0.000216136 W
                Gate Leakage = 4.75216e-06 W
                Runtime Dynamic = 0 W

              Local Predictor:
              L1_Local Predictor:
                Area = 0.00588309 mm^2
                Peak Dynamic = 0.0041416 W
                Subthreshold Leakage = 0.000195204 W
                Subthreshold Leakage with power gating = 0.000113194 W
                Gate Leakage = 2.68765e-06 W
                Runtime Dynamic = 0 W

              L2_Local Predictor:
                Area = 0.00299577 mm^2
                Peak Dynamic = 0.00205293 W
                Subthreshold Leakage = 0.000107724 W
                Subthreshold Leakage with power gating = 6.1471e-05 W
                Gate Leakage = 1.64109e-06 W
                Runtime Dynamic = 0 W

              Chooser:
                Area = 0.0122599 mm^2
                Peak Dynamic = 0.00687234 W
                Subthreshold Leakage = 0.000368869 W
                Subthreshold Leakage with power gating = 0.000216136 W
                Gate Leakage = 4.75216e-06 W
                Runtime Dynamic = 0 W

              RAS:
                Area = 0.00264738 mm^2
                Peak Dynamic = 0.00328372 W
                Subthreshold Leakage = 5.83929e-05 W
                Subthreshold Leakage with power gating = 3.28722e-05 W
                Gate Leakage = 9.40608e-07 W
                Runtime Dynamic = 0 W

          Instruction Buffer:
            Area = 0.00953762 mm^2
            Peak Dynamic = 0.530088 W
            Subthreshold Leakage = 0.000136711 W
            Subthreshold Leakage with power gating = 7.09986e-05 W
            Gate Leakage = 2.25735e-06 W
            Runtime Dynamic = 0 W

          Instruction Decoder:
            Area = 0.640954 mm^2
            Peak Dynamic = 0.349878 W
            Subthreshold Leakage = 0.0191833 W
            Subthreshold Leakage with power gating = 0.00863248 W
            Gate Leakage = 0.000321652 W
            Runtime Dynamic = 0 W

      Renaming Unit:
        Area = 0.398932 mm^2
        Peak Dynamic = 8.69359 W
        Subthreshold Leakage = 0.0109372 W
        Subthreshold Leakage with power gating = 0.00606856 W
        Gate Leakage = 0.000384701 W
        Runtime Dynamic = 3.80773e-11 W

          Int Front End RAT:
            Area = 0.21217 mm^2
            Peak Dynamic = 7.13042 W
            Subthreshold Leakage = 0.00602709 W
            Subthreshold Leakage with power gating = 0.00343544 W
            Gate Leakage = 0.00019896 W
            Runtime Dynamic = 0 W

          FP Front End RAT:
            Area = 0.0680121 mm^2
            Peak Dynamic = 1.35733 W
            Subthreshold Leakage = 0.00307484 W
            Subthreshold Leakage with power gating = 0.00175266 W
            Gate Leakage = 9.92553e-05 W
            Runtime Dynamic = 0 W

          Free List:
            Area = 0.102513 mm^2
            Peak Dynamic = 0.110214 W
            Subthreshold Leakage = 0.000354903 W
            Subthreshold Leakage with power gating = 0.000214298 W
            Gate Leakage = 4.37705e-06 W
            Runtime Dynamic = 0 W

      Load Store Unit:
        Area = 3.82362 mm^2
        Peak Dynamic = 0.384698 W
        Subthreshold Leakage = 0.0568103 W
        Subthreshold Leakage with power gating = 0.0282651 W
        Gate Leakage = 0.00100861 W
        Runtime Dynamic = 3.80773e-11 W

          Data Cache:
            Area = 3.1028 mm^2
            Peak Dynamic = 0.384698 W
            Subthreshold Leakage = 0.0540038 W
            Subthreshold Leakage with power gating = 0.0268431 W
            Gate Leakage = 0.000899052 W
            Runtime Dynamic = 0 W

          LoadQ:
            Area = 0.0208402 mm^2
            Peak Dynamic = 0 W
            Subthreshold Leakage = 0.000561618 W
            Subthreshold Leakage with power gating = 0.000320122 W
            Gate Leakage = 1.1987e-05 W
            Runtime Dynamic = 0 W

          StoreQ:
            Area = 0.0248506 mm^2
            Peak Dynamic = 0 W
            Subthreshold Leakage = 0.000764494 W
            Subthreshold Leakage with power gating = 0.000435762 W
            Gate Leakage = 1.54675e-05 W
            Runtime Dynamic = 0 W

      Memory Management Unit:
        Area = 0.0534534 mm^2
        Peak Dynamic = 0.0478185 W
        Subthreshold Leakage = 0.0028353 W
        Subthreshold Leakage with power gating = 0.00143848 W
        Gate Leakage = 0.000108584 W
        Runtime Dynamic = 3.80773e-11 W

          Itlb:
            Area = 0.0153781 mm^2
            Peak Dynamic = 0 W
            Subthreshold Leakage = 0.000525402 W
            Subthreshold Leakage with power gating = 0.000299479 W
            Gate Leakage = 1.04742e-05 W
            Runtime Dynamic = 0 W

          Dtlb:
            Area = 0.0218389 mm^2
            Peak Dynamic = 0 W
            Subthreshold Leakage = 0.000829526 W
            Subthreshold Leakage with power gating = 0.00047283 W
            Gate Leakage = 1.60011e-05 W
            Runtime Dynamic = 0 W

      Execution Unit:
        Area = 12.5101 mm^2
        Peak Dynamic = 119.985 W
        Subthreshold Leakage = 0.263602 W
        Subthreshold Leakage with power gating = 0.120668 W
        Gate Leakage = 0.00812329 W
        Runtime Dynamic = 0.268092 W

          Register Files:
            Area = 0.274572 mm^2
            Peak Dynamic = 0 W
            Subthreshold Leakage = 0.0011996 W
            Subthreshold Leakage with power gating = 0.000558105 W
            Gate Leakage = 2.52418e-05 W
            Runtime Dynamic = 0 W

              Integer RF:
                Area = 0.175302 mm^2
                Peak Dynamic = 0 W
                Subthreshold Leakage = 0.000764222 W
                Subthreshold Leakage with power gating = 0.0003514 W
                Gate Leakage = 1.6485e-05 W
                Runtime Dynamic = 0 W

              Floating Point RF:
                Area = 0.0992699 mm^2
                Peak Dynamic = 0 W
                Subthreshold Leakage = 0.000435376 W
                Subthreshold Leakage with power gating = 0.000206704 W
                Gate Leakage = 8.75685e-06 W
                Runtime Dynamic = 0 W

          Instruction Scheduler:
            Area = 10.6135 mm^2
            Peak Dynamic = 119.985 W
            Subthreshold Leakage = 0.192581 W
            Subthreshold Leakage with power gating = 0.0886908 W
            Gate Leakage = 0.00650973 W
            Runtime Dynamic = 0 W

              Instruction Window:
                Area = 0.601548 mm^2
                Peak Dynamic = 1.48955 W
                Subthreshold Leakage = 0.0124658 W
                Subthreshold Leakage with power gating = 0.00710224 W
                Gate Leakage = 0.000274914 W
                Runtime Dynamic = 0 W

              FP Instruction Window:
                Area = 0.084547 mm^2
                Peak Dynamic = 0.391146 W
                Subthreshold Leakage = 0.0011635 W
                Subthreshold Leakage with power gating = 0.000659943 W
                Gate Leakage = 2.63293e-05 W
                Runtime Dynamic = 0 W

              ROB:
                Area = 9.92741 mm^2
                Peak Dynamic = 118.104 W
                Subthreshold Leakage = 0.178952 W
                Subthreshold Leakage with power gating = 0.0809286 W
                Gate Leakage = 0.00620849 W
                Runtime Dynamic = 0 W

          Integer ALUs (Count: 9 ):
            Area = 0.34609 mm^2
            Peak Dynamic = 0 W
            Subthreshold Leakage = 0.0261022 W
            Subthreshold Leakage with power gating = 0.011746 W
            Gate Leakage = 0.000575286 W
            Runtime Dynamic = 0.044682 W

          Floating Point Units (FPUs) (Count: 2 ):
            Area = 1.11344 mm^2
            Peak Dynamic = 0 W
            Subthreshold Leakage = 0.020994 W
            Subthreshold Leakage with power gating = 0.0094473 W
            Gate Leakage = 0.000462702 W
            Runtime Dynamic = 0.134046 W

          Complex ALUs (Mul/Div) (Count: 1 ):
            Area = 0.115363 mm^2
            Peak Dynamic = 0 W
            Subthreshold Leakage = 0.00870074 W
            Subthreshold Leakage with power gating = 0.00391533 W
            Gate Leakage = 0.000191762 W
            Runtime Dynamic = 0.0893639 W

          Results Broadcast Bus:
            Area Overhead = 0.030867 mm^2
            Peak Dynamic = 0 W
            Subthreshold Leakage = 0.0125437 W
            Subthreshold Leakage with power gating = 0.00564468 W
            Gate Leakage = 0.000276461 W
            Runtime Dynamic = 0 W

    L2
    Area = 4.97248 mm^2
    Peak Dynamic = 0 W
    Subthreshold Leakage = 0.211997 W
    Subthreshold Leakage with power gating = 0.120751 W
    Gate Leakage = 0.00064227 W
    Runtime Dynamic = 2.49066e-10 W

*****************************************************************************************
Core:
      Area = 25.6912 mm^2
      Peak Dynamic = 130.071 W
      Subthreshold Leakage = 0.676327 W
      Subthreshold Leakage with power gating = 0.338249 W
      Gate Leakage = 0.0131211 W
      Runtime Dynamic = 0.268092 W

      Instruction Fetch Unit:
        Area = 1.77831 mm^2
        Peak Dynamic = 0.960404 W
        Subthreshold Leakage = 0.0489032 W
        Subthreshold Leakage with power gating = 0.0244982 W
        Gate Leakage = 0.00106307 W
        Runtime Dynamic = 3.80773e-11 W

          Instruction Cache:
            Area = 0.889009 mm^2
            Peak Dynamic = 0 W
            Subthreshold Leakage = 0.0224541 W
            Subthreshold Leakage with power gating = 0.0118459 W
            Gate Leakage = 0.000572546 W
            Runtime Dynamic = 0 W

          Branch Target Buffer:
            Area = 0.186524 mm^2
            Peak Dynamic = 0.059268 W
            Subthreshold Leakage = 0.00465747 W
            Subthreshold Leakage with power gating = 0.00270432 W
            Gate Leakage = 7.13769e-05 W
            Runtime Dynamic = 0 W

          Branch Predictor:
            Area = 0.036046 mm^2
            Peak Dynamic = 0.02117 W
            Subthreshold Leakage = 0.000991335 W
            Subthreshold Leakage with power gating = 0.000578338 W
            Gate Leakage = 1.31326e-05 W
            Runtime Dynamic = 0 W

              Global Predictor:
                Area = 0.0122599 mm^2
                Peak Dynamic = 0.00687234 W
                Subthreshold Leakage = 0.000368869 W
                Subthreshold Leakage with power gating = 0.000216136 W
                Gate Leakage = 4.75216e-06 W
                Runtime Dynamic = 0 W

              Local Predictor:
              L1_Local Predictor:
                Area = 0.00588309 mm^2
                Peak Dynamic = 0.0041416 W
                Subthreshold Leakage = 0.000195204 W
                Subthreshold Leakage with power gating = 0.000113194 W
                Gate Leakage = 2.68765e-06 W
                Runtime Dynamic = 0 W

              L2_Local Predictor:
                Area = 0.00299577 mm^2
                Peak Dynamic = 0.00205293 W
                Subthreshold Leakage = 0.000107724 W
                Subthreshold Leakage with power gating = 6.1471e-05 W
                Gate Leakage = 1.64109e-06 W
                Runtime Dynamic = 0 W

              Chooser:
                Area = 0.0122599 mm^2
                Peak Dynamic = 0.00687234 W
                Subthreshold Leakage = 0.000368869 W
                Subthreshold Leakage with power gating = 0.000216136 W
                Gate Leakage = 4.75216e-06 W
                Runtime Dynamic = 0 W

              RAS:
                Area = 0.00264738 mm^2
                Peak Dynamic = 0.00328372 W
                Subthreshold Leakage = 5.83929e-05 W
                Subthreshold Leakage with power gating = 3.28722e-05 W
                Gate Leakage = 9.40608e-07 W
                Runtime Dynamic = 0 W

          Instruction Buffer:
            Area = 0.00953762 mm^2
            Peak Dynamic = 0.530088 W
            Subthreshold Leakage = 0.000136711 W
            Subthreshold Leakage with power gating = 7.09986e-05 W
            Gate Leakage = 2.25735e-06 W
            Runtime Dynamic = 0 W

          Instruction Decoder:
            Area = 0.640954 mm^2
            Peak Dynamic = 0.349878 W
            Subthreshold Leakage = 0.0191833 W
            Subthreshold Leakage with power gating = 0.00863248 W
            Gate Leakage = 0.000321652 W
            Runtime Dynamic = 0 W

      Renaming Unit:
        Area = 0.398932 mm^2
        Peak Dynamic = 8.69359 W
        Subthreshold Leakage = 0.0109372 W
        Subthreshold Leakage with power gating = 0.00606856 W
        Gate Leakage = 0.000384701 W
        Runtime Dynamic = 3.80773e-11 W

          Int Front End RAT:
            Area = 0.21217 mm^2
            Peak Dynamic = 7.13042 W
            Subthreshold Leakage = 0.00602709 W
            Subthreshold Leakage with power gating = 0.00343544 W
            Gate Leakage = 0.00019896 W
            Runtime Dynamic = 0 W

          FP Front End RAT:
            Area = 0.0680121 mm^2
            Peak Dynamic = 1.35733 W
            Subthreshold Leakage = 0.00307484 W
            Subthreshold Leakage with power gating = 0.00175266 W
            Gate Leakage = 9.92553e-05 W
            Runtime Dynamic = 0 W

          Free List:
            Area = 0.102513 mm^2
            Peak Dynamic = 0.110214 W
            Subthreshold Leakage = 0.000354903 W
            Subthreshold Leakage with power gating = 0.000214298 W
            Gate Leakage = 4.37705e-06 W
            Runtime Dynamic = 0 W

      Load Store Unit:
        Area = 3.82362 mm^2
        Peak Dynamic = 0.384698 W
        Subthreshold Leakage = 0.0568103 W
        Subthreshold Leakage with power gating = 0.0282651 W
        Gate Leakage = 0.00100861 W
        Runtime Dynamic = 3.80773e-11 W

          Data Cache:
            Area = 3.1028 mm^2
            Peak Dynamic = 0.384698 W
            Subthreshold Leakage = 0.0540038 W
            Subthreshold Leakage with power gating = 0.0268431 W
            Gate Leakage = 0.000899052 W
            Runtime Dynamic = 0 W

          LoadQ:
            Area = 0.0208402 mm^2
            Peak Dynamic = 0 W
            Subthreshold Leakage = 0.000561618 W
            Subthreshold Leakage with power gating = 0.000320122 W
            Gate Leakage = 1.1987e-05 W
            Runtime Dynamic = 0 W

          StoreQ:
            Area = 0.0248506 mm^2
            Peak Dynamic = 0 W
            Subthreshold Leakage = 0.000764494 W
            Subthreshold Leakage with power gating = 0.000435762 W
            Gate Leakage = 1.54675e-05 W
            Runtime Dynamic = 0 W

      Memory Management Unit:
        Area = 0.0534534 mm^2
        Peak Dynamic = 0.0478185 W
        Subthreshold Leakage = 0.0028353 W
        Subthreshold Leakage with power gating = 0.00143848 W
        Gate Leakage = 0.000108584 W
        Runtime Dynamic = 3.80773e-11 W

          Itlb:
            Area = 0.0153781 mm^2
            Peak Dynamic = 0 W
            Subthreshold Leakage = 0.000525402 W
            Subthreshold Leakage with power gating = 0.000299479 W
            Gate Leakage = 1.04742e-05 W
            Runtime Dynamic = 0 W

          Dtlb:
            Area = 0.0218389 mm^2
            Peak Dynamic = 0 W
            Subthreshold Leakage = 0.000829526 W
            Subthreshold Leakage with power gating = 0.00047283 W
            Gate Leakage = 1.60011e-05 W
            Runtime Dynamic = 0 W

      Execution Unit:
        Area = 12.5101 mm^2
        Peak Dynamic = 119.985 W
        Subthreshold Leakage = 0.263602 W
        Subthreshold Leakage with power gating = 0.120668 W
        Gate Leakage = 0.00812329 W
        Runtime Dynamic = 0.268092 W

          Register Files:
            Area = 0.274572 mm^2
            Peak Dynamic = 0 W
            Subthreshold Leakage = 0.0011996 W
            Subthreshold Leakage with power gating = 0.000558105 W
            Gate Leakage = 2.52418e-05 W
            Runtime Dynamic = 0 W

              Integer RF:
                Area = 0.175302 mm^2
                Peak Dynamic = 0 W
                Subthreshold Leakage = 0.000764222 W
                Subthreshold Leakage with power gating = 0.0003514 W
                Gate Leakage = 1.6485e-05 W
                Runtime Dynamic = 0 W

              Floating Point RF:
                Area = 0.0992699 mm^2
                Peak Dynamic = 0 W
                Subthreshold Leakage = 0.000435376 W
                Subthreshold Leakage with power gating = 0.000206704 W
                Gate Leakage = 8.75685e-06 W
                Runtime Dynamic = 0 W

          Instruction Scheduler:
            Area = 10.6135 mm^2
            Peak Dynamic = 119.985 W
            Subthreshold Leakage = 0.192581 W
            Subthreshold Leakage with power gating = 0.0886908 W
            Gate Leakage = 0.00650973 W
            Runtime Dynamic = 0 W

              Instruction Window:
                Area = 0.601548 mm^2
                Peak Dynamic = 1.48955 W
                Subthreshold Leakage = 0.0124658 W
                Subthreshold Leakage with power gating = 0.00710224 W
                Gate Leakage = 0.000274914 W
                Runtime Dynamic = 0 W

              FP Instruction Window:
                Area = 0.084547 mm^2
                Peak Dynamic = 0.391146 W
                Subthreshold Leakage = 0.0011635 W
                Subthreshold Leakage with power gating = 0.000659943 W
                Gate Leakage = 2.63293e-05 W
                Runtime Dynamic = 0 W

              ROB:
                Area = 9.92741 mm^2
                Peak Dynamic = 118.104 W
                Subthreshold Leakage = 0.178952 W
                Subthreshold Leakage with power gating = 0.0809286 W
                Gate Leakage = 0.00620849 W
                Runtime Dynamic = 0 W

          Integer ALUs (Count: 9 ):
            Area = 0.34609 mm^2
            Peak Dynamic = 0 W
            Subthreshold Leakage = 0.0261022 W
            Subthreshold Leakage with power gating = 0.011746 W
            Gate Leakage = 0.000575286 W
            Runtime Dynamic = 0.044682 W

          Floating Point Units (FPUs) (Count: 2 ):
            Area = 1.11344 mm^2
            Peak Dynamic = 0 W
            Subthreshold Leakage = 0.020994 W
            Subthreshold Leakage with power gating = 0.0094473 W
            Gate Leakage = 0.000462702 W
            Runtime Dynamic = 0.134046 W

          Complex ALUs (Mul/Div) (Count: 1 ):
            Area = 0.115363 mm^2
            Peak Dynamic = 0 W
            Subthreshold Leakage = 0.00870074 W
            Subthreshold Leakage with power gating = 0.00391533 W
            Gate Leakage = 0.000191762 W
            Runtime Dynamic = 0.0893639 W

          Results Broadcast Bus:
            Area Overhead = 0.030867 mm^2
            Peak Dynamic = 0 W
            Subthreshold Leakage = 0.0125437 W
            Subthreshold Leakage with power gating = 0.00564468 W
            Gate Leakage = 0.000276461 W
            Runtime Dynamic = 0 W

    L2
    Area = 4.97248 mm^2
    Peak Dynamic = 0 W
    Subthreshold Leakage = 0.211997 W
    Subthreshold Leakage with power gating = 0.120751 W
    Gate Leakage = 0.00064227 W
    Runtime Dynamic = 2.49066e-10 W

*****************************************************************************************
Core:
      Area = 25.6912 mm^2
      Peak Dynamic = 130.071 W
      Subthreshold Leakage = 0.676327 W
      Subthreshold Leakage with power gating = 0.338249 W
      Gate Leakage = 0.0131211 W
      Runtime Dynamic = 0.268092 W

      Instruction Fetch Unit:
        Area = 1.77831 mm^2
        Peak Dynamic = 0.960404 W
        Subthreshold Leakage = 0.0489032 W
        Subthreshold Leakage with power gating = 0.0244982 W
        Gate Leakage = 0.00106307 W
        Runtime Dynamic = 3.80773e-11 W

          Instruction Cache:
            Area = 0.889009 mm^2
            Peak Dynamic = 0 W
            Subthreshold Leakage = 0.0224541 W
            Subthreshold Leakage with power gating = 0.0118459 W
            Gate Leakage = 0.000572546 W
            Runtime Dynamic = 0 W

          Branch Target Buffer:
            Area = 0.186524 mm^2
            Peak Dynamic = 0.059268 W
            Subthreshold Leakage = 0.00465747 W
            Subthreshold Leakage with power gating = 0.00270432 W
            Gate Leakage = 7.13769e-05 W
            Runtime Dynamic = 0 W

          Branch Predictor:
            Area = 0.036046 mm^2
            Peak Dynamic = 0.02117 W
            Subthreshold Leakage = 0.000991335 W
            Subthreshold Leakage with power gating = 0.000578338 W
            Gate Leakage = 1.31326e-05 W
            Runtime Dynamic = 0 W

              Global Predictor:
                Area = 0.0122599 mm^2
                Peak Dynamic = 0.00687234 W
                Subthreshold Leakage = 0.000368869 W
                Subthreshold Leakage with power gating = 0.000216136 W
                Gate Leakage = 4.75216e-06 W
                Runtime Dynamic = 0 W

              Local Predictor:
              L1_Local Predictor:
                Area = 0.00588309 mm^2
                Peak Dynamic = 0.0041416 W
                Subthreshold Leakage = 0.000195204 W
                Subthreshold Leakage with power gating = 0.000113194 W
                Gate Leakage = 2.68765e-06 W
                Runtime Dynamic = 0 W

              L2_Local Predictor:
                Area = 0.00299577 mm^2
                Peak Dynamic = 0.00205293 W
                Subthreshold Leakage = 0.000107724 W
                Subthreshold Leakage with power gating = 6.1471e-05 W
                Gate Leakage = 1.64109e-06 W
                Runtime Dynamic = 0 W

              Chooser:
                Area = 0.0122599 mm^2
                Peak Dynamic = 0.00687234 W
                Subthreshold Leakage = 0.000368869 W
                Subthreshold Leakage with power gating = 0.000216136 W
                Gate Leakage = 4.75216e-06 W
                Runtime Dynamic = 0 W

              RAS:
                Area = 0.00264738 mm^2
                Peak Dynamic = 0.00328372 W
                Subthreshold Leakage = 5.83929e-05 W
                Subthreshold Leakage with power gating = 3.28722e-05 W
                Gate Leakage = 9.40608e-07 W
                Runtime Dynamic = 0 W

          Instruction Buffer:
            Area = 0.00953762 mm^2
            Peak Dynamic = 0.530088 W
            Subthreshold Leakage = 0.000136711 W
            Subthreshold Leakage with power gating = 7.09986e-05 W
            Gate Leakage = 2.25735e-06 W
            Runtime Dynamic = 0 W

          Instruction Decoder:
            Area = 0.640954 mm^2
            Peak Dynamic = 0.349878 W
            Subthreshold Leakage = 0.0191833 W
            Subthreshold Leakage with power gating = 0.00863248 W
            Gate Leakage = 0.000321652 W
            Runtime Dynamic = 0 W

      Renaming Unit:
        Area = 0.398932 mm^2
        Peak Dynamic = 8.69359 W
        Subthreshold Leakage = 0.0109372 W
        Subthreshold Leakage with power gating = 0.00606856 W
        Gate Leakage = 0.000384701 W
        Runtime Dynamic = 3.80773e-11 W

          Int Front End RAT:
            Area = 0.21217 mm^2
            Peak Dynamic = 7.13042 W
            Subthreshold Leakage = 0.00602709 W
            Subthreshold Leakage with power gating = 0.00343544 W
            Gate Leakage = 0.00019896 W
            Runtime Dynamic = 0 W

          FP Front End RAT:
            Area = 0.0680121 mm^2
            Peak Dynamic = 1.35733 W
            Subthreshold Leakage = 0.00307484 W
            Subthreshold Leakage with power gating = 0.00175266 W
            Gate Leakage = 9.92553e-05 W
            Runtime Dynamic = 0 W

          Free List:
            Area = 0.102513 mm^2
            Peak Dynamic = 0.110214 W
            Subthreshold Leakage = 0.000354903 W
            Subthreshold Leakage with power gating = 0.000214298 W
            Gate Leakage = 4.37705e-06 W
            Runtime Dynamic = 0 W

      Load Store Unit:
        Area = 3.82362 mm^2
        Peak Dynamic = 0.384698 W
        Subthreshold Leakage = 0.0568103 W
        Subthreshold Leakage with power gating = 0.0282651 W
        Gate Leakage = 0.00100861 W
        Runtime Dynamic = 3.80773e-11 W

          Data Cache:
            Area = 3.1028 mm^2
            Peak Dynamic = 0.384698 W
            Subthreshold Leakage = 0.0540038 W
            Subthreshold Leakage with power gating = 0.0268431 W
            Gate Leakage = 0.000899052 W
            Runtime Dynamic = 0 W

          LoadQ:
            Area = 0.0208402 mm^2
            Peak Dynamic = 0 W
            Subthreshold Leakage = 0.000561618 W
            Subthreshold Leakage with power gating = 0.000320122 W
            Gate Leakage = 1.1987e-05 W
            Runtime Dynamic = 0 W

          StoreQ:
            Area = 0.0248506 mm^2
            Peak Dynamic = 0 W
            Subthreshold Leakage = 0.000764494 W
            Subthreshold Leakage with power gating = 0.000435762 W
            Gate Leakage = 1.54675e-05 W
            Runtime Dynamic = 0 W

      Memory Management Unit:
        Area = 0.0534534 mm^2
        Peak Dynamic = 0.0478185 W
        Subthreshold Leakage = 0.0028353 W
        Subthreshold Leakage with power gating = 0.00143848 W
        Gate Leakage = 0.000108584 W
        Runtime Dynamic = 3.80773e-11 W

          Itlb:
            Area = 0.0153781 mm^2
            Peak Dynamic = 0 W
            Subthreshold Leakage = 0.000525402 W
            Subthreshold Leakage with power gating = 0.000299479 W
            Gate Leakage = 1.04742e-05 W
            Runtime Dynamic = 0 W

          Dtlb:
            Area = 0.0218389 mm^2
            Peak Dynamic = 0 W
            Subthreshold Leakage = 0.000829526 W
            Subthreshold Leakage with power gating = 0.00047283 W
            Gate Leakage = 1.60011e-05 W
            Runtime Dynamic = 0 W

      Execution Unit:
        Area = 12.5101 mm^2
        Peak Dynamic = 119.985 W
        Subthreshold Leakage = 0.263602 W
        Subthreshold Leakage with power gating = 0.120668 W
        Gate Leakage = 0.00812329 W
        Runtime Dynamic = 0.268092 W

          Register Files:
            Area = 0.274572 mm^2
            Peak Dynamic = 0 W
            Subthreshold Leakage = 0.0011996 W
            Subthreshold Leakage with power gating = 0.000558105 W
            Gate Leakage = 2.52418e-05 W
            Runtime Dynamic = 0 W

              Integer RF:
                Area = 0.175302 mm^2
                Peak Dynamic = 0 W
                Subthreshold Leakage = 0.000764222 W
                Subthreshold Leakage with power gating = 0.0003514 W
                Gate Leakage = 1.6485e-05 W
                Runtime Dynamic = 0 W

              Floating Point RF:
                Area = 0.0992699 mm^2
                Peak Dynamic = 0 W
                Subthreshold Leakage = 0.000435376 W
                Subthreshold Leakage with power gating = 0.000206704 W
                Gate Leakage = 8.75685e-06 W
                Runtime Dynamic = 0 W

          Instruction Scheduler:
            Area = 10.6135 mm^2
            Peak Dynamic = 119.985 W
            Subthreshold Leakage = 0.192581 W
            Subthreshold Leakage with power gating = 0.0886908 W
            Gate Leakage = 0.00650973 W
            Runtime Dynamic = 0 W

              Instruction Window:
                Area = 0.601548 mm^2
                Peak Dynamic = 1.48955 W
                Subthreshold Leakage = 0.0124658 W
                Subthreshold Leakage with power gating = 0.00710224 W
                Gate Leakage = 0.000274914 W
                Runtime Dynamic = 0 W

              FP Instruction Window:
                Area = 0.084547 mm^2
                Peak Dynamic = 0.391146 W
                Subthreshold Leakage = 0.0011635 W
                Subthreshold Leakage with power gating = 0.000659943 W
                Gate Leakage = 2.63293e-05 W
                Runtime Dynamic = 0 W

              ROB:
                Area = 9.92741 mm^2
                Peak Dynamic = 118.104 W
                Subthreshold Leakage = 0.178952 W
                Subthreshold Leakage with power gating = 0.0809286 W
                Gate Leakage = 0.00620849 W
                Runtime Dynamic = 0 W

          Integer ALUs (Count: 9 ):
            Area = 0.34609 mm^2
            Peak Dynamic = 0 W
            Subthreshold Leakage = 0.0261022 W
            Subthreshold Leakage with power gating = 0.011746 W
            Gate Leakage = 0.000575286 W
            Runtime Dynamic = 0.044682 W

          Floating Point Units (FPUs) (Count: 2 ):
            Area = 1.11344 mm^2
            Peak Dynamic = 0 W
            Subthreshold Leakage = 0.020994 W
            Subthreshold Leakage with power gating = 0.0094473 W
            Gate Leakage = 0.000462702 W
            Runtime Dynamic = 0.134046 W

          Complex ALUs (Mul/Div) (Count: 1 ):
            Area = 0.115363 mm^2
            Peak Dynamic = 0 W
            Subthreshold Leakage = 0.00870074 W
            Subthreshold Leakage with power gating = 0.00391533 W
            Gate Leakage = 0.000191762 W
            Runtime Dynamic = 0.0893639 W

          Results Broadcast Bus:
            Area Overhead = 0.030867 mm^2
            Peak Dynamic = 0 W
            Subthreshold Leakage = 0.0125437 W
            Subthreshold Leakage with power gating = 0.00564468 W
            Gate Leakage = 0.000276461 W
            Runtime Dynamic = 0 W

    L2
    Area = 4.97248 mm^2
    Peak Dynamic = 0 W
    Subthreshold Leakage = 0.211997 W
    Subthreshold Leakage with power gating = 0.120751 W
    Gate Leakage = 0.00064227 W
    Runtime Dynamic = 2.49066e-10 W

*****************************************************************************************
Core:
      Area = 25.6912 mm^2
      Peak Dynamic = 130.071 W
      Subthreshold Leakage = 0.676327 W
      Subthreshold Leakage with power gating = 0.338249 W
      Gate Leakage = 0.0131211 W
      Runtime Dynamic = 0.268092 W

      Instruction Fetch Unit:
        Area = 1.77831 mm^2
        Peak Dynamic = 0.960404 W
        Subthreshold Leakage = 0.0489032 W
        Subthreshold Leakage with power gating = 0.0244982 W
        Gate Leakage = 0.00106307 W
        Runtime Dynamic = 3.80773e-11 W

          Instruction Cache:
            Area = 0.889009 mm^2
            Peak Dynamic = 0 W
            Subthreshold Leakage = 0.0224541 W
            Subthreshold Leakage with power gating = 0.0118459 W
            Gate Leakage = 0.000572546 W
            Runtime Dynamic = 0 W

          Branch Target Buffer:
            Area = 0.186524 mm^2
            Peak Dynamic = 0.059268 W
            Subthreshold Leakage = 0.00465747 W
            Subthreshold Leakage with power gating = 0.00270432 W
            Gate Leakage = 7.13769e-05 W
            Runtime Dynamic = 0 W

          Branch Predictor:
            Area = 0.036046 mm^2
            Peak Dynamic = 0.02117 W
            Subthreshold Leakage = 0.000991335 W
            Subthreshold Leakage with power gating = 0.000578338 W
            Gate Leakage = 1.31326e-05 W
            Runtime Dynamic = 0 W

              Global Predictor:
                Area = 0.0122599 mm^2
                Peak Dynamic = 0.00687234 W
                Subthreshold Leakage = 0.000368869 W
                Subthreshold Leakage with power gating = 0.000216136 W
                Gate Leakage = 4.75216e-06 W
                Runtime Dynamic = 0 W

              Local Predictor:
              L1_Local Predictor:
                Area = 0.00588309 mm^2
                Peak Dynamic = 0.0041416 W
                Subthreshold Leakage = 0.000195204 W
                Subthreshold Leakage with power gating = 0.000113194 W
                Gate Leakage = 2.68765e-06 W
                Runtime Dynamic = 0 W

              L2_Local Predictor:
                Area = 0.00299577 mm^2
                Peak Dynamic = 0.00205293 W
                Subthreshold Leakage = 0.000107724 W
                Subthreshold Leakage with power gating = 6.1471e-05 W
                Gate Leakage = 1.64109e-06 W
                Runtime Dynamic = 0 W

              Chooser:
                Area = 0.0122599 mm^2
                Peak Dynamic = 0.00687234 W
                Subthreshold Leakage = 0.000368869 W
                Subthreshold Leakage with power gating = 0.000216136 W
                Gate Leakage = 4.75216e-06 W
                Runtime Dynamic = 0 W

              RAS:
                Area = 0.00264738 mm^2
                Peak Dynamic = 0.00328372 W
                Subthreshold Leakage = 5.83929e-05 W
                Subthreshold Leakage with power gating = 3.28722e-05 W
                Gate Leakage = 9.40608e-07 W
                Runtime Dynamic = 0 W

          Instruction Buffer:
            Area = 0.00953762 mm^2
            Peak Dynamic = 0.530088 W
            Subthreshold Leakage = 0.000136711 W
            Subthreshold Leakage with power gating = 7.09986e-05 W
            Gate Leakage = 2.25735e-06 W
            Runtime Dynamic = 0 W

          Instruction Decoder:
            Area = 0.640954 mm^2
            Peak Dynamic = 0.349878 W
            Subthreshold Leakage = 0.0191833 W
            Subthreshold Leakage with power gating = 0.00863248 W
            Gate Leakage = 0.000321652 W
            Runtime Dynamic = 0 W

      Renaming Unit:
        Area = 0.398932 mm^2
        Peak Dynamic = 8.69359 W
        Subthreshold Leakage = 0.0109372 W
        Subthreshold Leakage with power gating = 0.00606856 W
        Gate Leakage = 0.000384701 W
        Runtime Dynamic = 3.80773e-11 W

          Int Front End RAT:
            Area = 0.21217 mm^2
            Peak Dynamic = 7.13042 W
            Subthreshold Leakage = 0.00602709 W
            Subthreshold Leakage with power gating = 0.00343544 W
            Gate Leakage = 0.00019896 W
            Runtime Dynamic = 0 W

          FP Front End RAT:
            Area = 0.0680121 mm^2
            Peak Dynamic = 1.35733 W
            Subthreshold Leakage = 0.00307484 W
            Subthreshold Leakage with power gating = 0.00175266 W
            Gate Leakage = 9.92553e-05 W
            Runtime Dynamic = 0 W

          Free List:
            Area = 0.102513 mm^2
            Peak Dynamic = 0.110214 W
            Subthreshold Leakage = 0.000354903 W
            Subthreshold Leakage with power gating = 0.000214298 W
            Gate Leakage = 4.37705e-06 W
            Runtime Dynamic = 0 W

      Load Store Unit:
        Area = 3.82362 mm^2
        Peak Dynamic = 0.384698 W
        Subthreshold Leakage = 0.0568103 W
        Subthreshold Leakage with power gating = 0.0282651 W
        Gate Leakage = 0.00100861 W
        Runtime Dynamic = 3.80773e-11 W

          Data Cache:
            Area = 3.1028 mm^2
            Peak Dynamic = 0.384698 W
            Subthreshold Leakage = 0.0540038 W
            Subthreshold Leakage with power gating = 0.0268431 W
            Gate Leakage = 0.000899052 W
            Runtime Dynamic = 0 W

          LoadQ:
            Area = 0.0208402 mm^2
            Peak Dynamic = 0 W
            Subthreshold Leakage = 0.000561618 W
            Subthreshold Leakage with power gating = 0.000320122 W
            Gate Leakage = 1.1987e-05 W
            Runtime Dynamic = 0 W

          StoreQ:
            Area = 0.0248506 mm^2
            Peak Dynamic = 0 W
            Subthreshold Leakage = 0.000764494 W
            Subthreshold Leakage with power gating = 0.000435762 W
            Gate Leakage = 1.54675e-05 W
            Runtime Dynamic = 0 W

      Memory Management Unit:
        Area = 0.0534534 mm^2
        Peak Dynamic = 0.0478185 W
        Subthreshold Leakage = 0.0028353 W
        Subthreshold Leakage with power gating = 0.00143848 W
        Gate Leakage = 0.000108584 W
        Runtime Dynamic = 3.80773e-11 W

          Itlb:
            Area = 0.0153781 mm^2
            Peak Dynamic = 0 W
            Subthreshold Leakage = 0.000525402 W
            Subthreshold Leakage with power gating = 0.000299479 W
            Gate Leakage = 1.04742e-05 W
            Runtime Dynamic = 0 W

          Dtlb:
            Area = 0.0218389 mm^2
            Peak Dynamic = 0 W
            Subthreshold Leakage = 0.000829526 W
            Subthreshold Leakage with power gating = 0.00047283 W
            Gate Leakage = 1.60011e-05 W
            Runtime Dynamic = 0 W

      Execution Unit:
        Area = 12.5101 mm^2
        Peak Dynamic = 119.985 W
        Subthreshold Leakage = 0.263602 W
        Subthreshold Leakage with power gating = 0.120668 W
        Gate Leakage = 0.00812329 W
        Runtime Dynamic = 0.268092 W

          Register Files:
            Area = 0.274572 mm^2
            Peak Dynamic = 0 W
            Subthreshold Leakage = 0.0011996 W
            Subthreshold Leakage with power gating = 0.000558105 W
            Gate Leakage = 2.52418e-05 W
            Runtime Dynamic = 0 W

              Integer RF:
                Area = 0.175302 mm^2
                Peak Dynamic = 0 W
                Subthreshold Leakage = 0.000764222 W
                Subthreshold Leakage with power gating = 0.0003514 W
                Gate Leakage = 1.6485e-05 W
                Runtime Dynamic = 0 W

              Floating Point RF:
                Area = 0.0992699 mm^2
                Peak Dynamic = 0 W
                Subthreshold Leakage = 0.000435376 W
                Subthreshold Leakage with power gating = 0.000206704 W
                Gate Leakage = 8.75685e-06 W
                Runtime Dynamic = 0 W

          Instruction Scheduler:
            Area = 10.6135 mm^2
            Peak Dynamic = 119.985 W
            Subthreshold Leakage = 0.192581 W
            Subthreshold Leakage with power gating = 0.0886908 W
            Gate Leakage = 0.00650973 W
            Runtime Dynamic = 0 W

              Instruction Window:
                Area = 0.601548 mm^2
                Peak Dynamic = 1.48955 W
                Subthreshold Leakage = 0.0124658 W
                Subthreshold Leakage with power gating = 0.00710224 W
                Gate Leakage = 0.000274914 W
                Runtime Dynamic = 0 W

              FP Instruction Window:
                Area = 0.084547 mm^2
                Peak Dynamic = 0.391146 W
                Subthreshold Leakage = 0.0011635 W
                Subthreshold Leakage with power gating = 0.000659943 W
                Gate Leakage = 2.63293e-05 W
                Runtime Dynamic = 0 W

              ROB:
                Area = 9.92741 mm^2
                Peak Dynamic = 118.104 W
                Subthreshold Leakage = 0.178952 W
                Subthreshold Leakage with power gating = 0.0809286 W
                Gate Leakage = 0.00620849 W
                Runtime Dynamic = 0 W

          Integer ALUs (Count: 9 ):
            Area = 0.34609 mm^2
            Peak Dynamic = 0 W
            Subthreshold Leakage = 0.0261022 W
            Subthreshold Leakage with power gating = 0.011746 W
            Gate Leakage = 0.000575286 W
            Runtime Dynamic = 0.044682 W

          Floating Point Units (FPUs) (Count: 2 ):
            Area = 1.11344 mm^2
            Peak Dynamic = 0 W
            Subthreshold Leakage = 0.020994 W
            Subthreshold Leakage with power gating = 0.0094473 W
            Gate Leakage = 0.000462702 W
            Runtime Dynamic = 0.134046 W

          Complex ALUs (Mul/Div) (Count: 1 ):
            Area = 0.115363 mm^2
            Peak Dynamic = 0 W
            Subthreshold Leakage = 0.00870074 W
            Subthreshold Leakage with power gating = 0.00391533 W
            Gate Leakage = 0.000191762 W
            Runtime Dynamic = 0.0893639 W

          Results Broadcast Bus:
            Area Overhead = 0.030867 mm^2
            Peak Dynamic = 0 W
            Subthreshold Leakage = 0.0125437 W
            Subthreshold Leakage with power gating = 0.00564468 W
            Gate Leakage = 0.000276461 W
            Runtime Dynamic = 0 W

    L2
    Area = 4.97248 mm^2
    Peak Dynamic = 0 W
    Subthreshold Leakage = 0.211997 W
    Subthreshold Leakage with power gating = 0.120751 W
    Gate Leakage = 0.00064227 W
    Runtime Dynamic = 2.49066e-10 W

*****************************************************************************************
Core:
      Area = 25.6912 mm^2
      Peak Dynamic = 130.071 W
      Subthreshold Leakage = 0.676327 W
      Subthreshold Leakage with power gating = 0.338249 W
      Gate Leakage = 0.0131211 W
      Runtime Dynamic = 0.268092 W

      Instruction Fetch Unit:
        Area = 1.77831 mm^2
        Peak Dynamic = 0.960404 W
        Subthreshold Leakage = 0.0489032 W
        Subthreshold Leakage with power gating = 0.0244982 W
        Gate Leakage = 0.00106307 W
        Runtime Dynamic = 3.80773e-11 W

          Instruction Cache:
            Area = 0.889009 mm^2
            Peak Dynamic = 0 W
            Subthreshold Leakage = 0.0224541 W
            Subthreshold Leakage with power gating = 0.0118459 W
            Gate Leakage = 0.000572546 W
            Runtime Dynamic = 0 W

          Branch Target Buffer:
            Area = 0.186524 mm^2
            Peak Dynamic = 0.059268 W
            Subthreshold Leakage = 0.00465747 W
            Subthreshold Leakage with power gating = 0.00270432 W
            Gate Leakage = 7.13769e-05 W
            Runtime Dynamic = 0 W

          Branch Predictor:
            Area = 0.036046 mm^2
            Peak Dynamic = 0.02117 W
            Subthreshold Leakage = 0.000991335 W
            Subthreshold Leakage with power gating = 0.000578338 W
            Gate Leakage = 1.31326e-05 W
            Runtime Dynamic = 0 W

              Global Predictor:
                Area = 0.0122599 mm^2
                Peak Dynamic = 0.00687234 W
                Subthreshold Leakage = 0.000368869 W
                Subthreshold Leakage with power gating = 0.000216136 W
                Gate Leakage = 4.75216e-06 W
                Runtime Dynamic = 0 W

              Local Predictor:
              L1_Local Predictor:
                Area = 0.00588309 mm^2
[...]
                Gate Leakage = 2.68765e-06 W
                Runtime Dynamic = 0 W

              L2_Local Predictor:
                Area = 0.00299577 mm^2
                Peak Dynamic = 0.00205293 W
                Subthreshold Leakage = 0.000107724 W
                Subthreshold Leakage with power gating = 6.1471e-05 W
                Gate Leakage = 1.64109e-06 W
                Runtime Dynamic = 0 W

              Chooser:
                Area = 0.0122599 mm^2
                Peak Dynamic = 0.00687234 W
                Subthreshold Leakage = 0.000368869 W
                Subthreshold Leakage with power gating = 0.000216136 W
                Gate Leakage = 4.75216e-06 W
                Runtime Dynamic = 0 W

              RAS:
                Area = 0.00264738 mm^2
                Peak Dynamic = 0.00328372 W
                Subthreshold Leakage = 5.83929e-05 W
                Subthreshold Leakage with power gating = 3.28722e-05 W
                Gate Leakage = 9.40608e-07 W
                Runtime Dynamic = 0 W

          Instruction Buffer:
            Area = 0.00953762 mm^2
            Peak Dynamic = 0.530088 W
            Subthreshold Leakage = 0.000136711 W
            Subthreshold Leakage with power gating = 7.09986e-05 W
            Gate Leakage = 2.25735e-06 W
            Runtime Dynamic = 0 W

          Instruction Decoder:
            Area = 0.640954 mm^2
            Peak Dynamic = 0.349878 W
            Subthreshold Leakage = 0.0191833 W
            Subthreshold Leakage with power gating = 0.00863248 W
            Gate Leakage = 0.000321652 W
            Runtime Dynamic = 0 W

      Renaming Unit:
        Area = 0.398932 mm^2
        Peak Dynamic = 8.69359 W
        Subthreshold Leakage = 0.0109372 W
        Subthreshold Leakage with power gating = 0.00606856 W
        Gate Leakage = 0.000384701 W
        Runtime Dynamic = 3.80773e-11 W

          Int Front End RAT:
            Area = 0.21217 mm^2
            Peak Dynamic = 7.13042 W
            Subthreshold Leakage = 0.00602709 W
            Subthreshold Leakage with power gating = 0.00343544 W
            Gate Leakage = 0.00019896 W
            Runtime Dynamic = 0 W

          FP Front End RAT:
            Area = 0.0680121 mm^2
            Peak Dynamic = 1.35733 W
            Subthreshold Leakage = 0.00307484 W
            Subthreshold Leakage with power gating = 0.00175266 W
            Gate Leakage = 9.92553e-05 W
            Runtime Dynamic = 0 W

          Free List:
            Area = 0.102513 mm^2
            Peak Dynamic = 0.110214 W
            Subthreshold Leakage = 0.000354903 W
            Subthreshold Leakage with power gating = 0.000214298 W
            Gate Leakage = 4.37705e-06 W
            Runtime Dynamic = 0 W

      Load Store Unit:
        Area = 3.82362 mm^2
        Peak Dynamic = 0.384698 W
        Subthreshold Leakage = 0.0568103 W
        Subthreshold Leakage with power gating = 0.0282651 W
        Gate Leakage = 0.00100861 W
        Runtime Dynamic = 3.80773e-11 W

          Data Cache:
            Area = 3.1028 mm^2
            Peak Dynamic = 0.384698 W
            Subthreshold Leakage = 0.0540038 W
            Subthreshold Leakage with power gating = 0.0268431 W
            Gate Leakage = 0.000899052 W
            Runtime Dynamic = 0 W

          LoadQ:
            Area = 0.0208402 mm^2
            Peak Dynamic = 0 W
            Subthreshold Leakage = 0.000561618 W
            Subthreshold Leakage with power gating = 0.000320122 W
            Gate Leakage = 1.1987e-05 W
            Runtime Dynamic = 0 W

          StoreQ:
            Area = 0.0248506 mm^2
            Peak Dynamic = 0 W
            Subthreshold Leakage = 0.000764494 W
            Subthreshold Leakage with power gating = 0.000435762 W
            Gate Leakage = 1.54675e-05 W
            Runtime Dynamic = 0 W

      Memory Management Unit:
        Area = 0.0534534 mm^2
        Peak Dynamic = 0.0478185 W
        Subthreshold Leakage = 0.0028353 W
        Subthreshold Leakage with power gating = 0.00143848 W
        Gate Leakage = 0.000108584 W
        Runtime Dynamic = 3.80773e-11 W

          Itlb:
            Area = 0.0153781 mm^2
            Peak Dynamic = 0 W
            Subthreshold Leakage = 0.000525402 W
            Subthreshold Leakage with power gating = 0.000299479 W
            Gate Leakage = 1.04742e-05 W
            Runtime Dynamic = 0 W

          Dtlb:
            Area = 0.0218389 mm^2
            Peak Dynamic = 0 W
            Subthreshold Leakage = 0.000829526 W
            Subthreshold Leakage with power gating = 0.00047283 W
            Gate Leakage = 1.60011e-05 W
            Runtime Dynamic = 0 W

      Execution Unit:
        Area = 12.5101 mm^2
        Peak Dynamic = 119.985 W
        Subthreshold Leakage = 0.263602 W
        Subthreshold Leakage with power gating = 0.120668 W
        Gate Leakage = 0.00812329 W
        Runtime Dynamic = 0.268092 W

          Register Files:
            Area = 0.274572 mm^2
            Peak Dynamic = 0 W
            Subthreshold Leakage = 0.0011996 W
            Subthreshold Leakage with power gating = 0.000558105 W
            Gate Leakage = 2.52418e-05 W
            Runtime Dynamic = 0 W

              Integer RF:
                Area = 0.175302 mm^2
                Peak Dynamic = 0 W
                Subthreshold Leakage = 0.000764222 W
                Subthreshold Leakage with power gating = 0.0003514 W
                Gate Leakage = 1.6485e-05 W
                Runtime Dynamic = 0 W

              Floating Point RF:
                Area = 0.0992699 mm^2
                Peak Dynamic = 0 W
                Subthreshold Leakage = 0.000435376 W
                Subthreshold Leakage with power gating = 0.000206704 W
                Gate Leakage = 8.75685e-06 W
                Runtime Dynamic = 0 W

          Instruction Scheduler:
            Area = 10.6135 mm^2
            Peak Dynamic = 119.985 W
            Subthreshold Leakage = 0.192581 W
            Subthreshold Leakage with power gating = 0.0886908 W
            Gate Leakage = 0.00650973 W
            Runtime Dynamic = 0 W

              Instruction Window:
                Area = 0.601548 mm^2
                Peak Dynamic = 1.48955 W
                Subthreshold Leakage = 0.0124658 W
                Subthreshold Leakage with power gating = 0.00710224 W
                Gate Leakage = 0.000274914 W
                Runtime Dynamic = 0 W

              FP Instruction Window:
                Area = 0.084547 mm^2
                Peak Dynamic = 0.391146 W
                Subthreshold Leakage = 0.0011635 W
                Subthreshold Leakage with power gating = 0.000659943 W
                Gate Leakage = 2.63293e-05 W
                Runtime Dynamic = 0 W

              ROB:
                Area = 9.92741 mm^2
                Peak Dynamic = 118.104 W
                Subthreshold Leakage = 0.178952 W
                Subthreshold Leakage with power gating = 0.0809286 W
                Gate Leakage = 0.00620849 W
                Runtime Dynamic = 0 W

          Integer ALUs (Count: 9 ):
            Area = 0.34609 mm^2
            Peak Dynamic = 0 W
            Subthreshold Leakage = 0.0261022 W
            Subthreshold Leakage with power gating = 0.011746 W
            Gate Leakage = 0.000575286 W
            Runtime Dynamic = 0.044682 W

          Floating Point Units (FPUs) (Count: 2 ):
            Area = 1.11344 mm^2
            Peak Dynamic = 0 W
            Subthreshold Leakage = 0.020994 W
            Subthreshold Leakage with power gating = 0.0094473 W
            Gate Leakage = 0.000462702 W
            Runtime Dynamic = 0.134046 W

          Complex ALUs (Mul/Div) (Count: 1 ):
            Area = 0.115363 mm^2
            Peak Dynamic = 0 W
            Subthreshold Leakage = 0.00870074 W
            Subthreshold Leakage with power gating = 0.00391533 W
            Gate Leakage = 0.000191762 W
            Runtime Dynamic = 0.0893639 W

          Results Broadcast Bus:
            Area Overhead = 0.030867 mm^2
            Peak Dynamic = 0 W
            Subthreshold Leakage = 0.0125437 W
            Subthreshold Leakage with power gating = 0.00564468 W
            Gate Leakage = 0.000276461 W
            Runtime Dynamic = 0 W

    L2
    Area = 4.97248 mm^2
    Peak Dynamic = 0 W
    Subthreshold Leakage = 0.211997 W
    Subthreshold Leakage with power gating = 0.120751 W
    Gate Leakage = 0.00064227 W
    Runtime Dynamic = 2.49066e-10 W

*****************************************************************************************
Core:
      Area = 25.6912 mm^2
      Peak Dynamic = 130.071 W
      Subthreshold Leakage = 0.676327 W
      Subthreshold Leakage with power gating = 0.338249 W
      Gate Leakage = 0.0131211 W
      Runtime Dynamic = 0.268092 W

      Instruction Fetch Unit:
        Area = 1.77831 mm^2
        Peak Dynamic = 0.960404 W
        Subthreshold Leakage = 0.0489032 W
        Subthreshold Leakage with power gating = 0.0244982 W
        Gate Leakage = 0.00106307 W
        Runtime Dynamic = 3.80773e-11 W

          Instruction Cache:
            Area = 0.889009 mm^2
            Peak Dynamic = 0 W
            Subthreshold Leakage = 0.0224541 W
            Subthreshold Leakage with power gating = 0.0118459 W
            Gate Leakage = 0.000572546 W
            Runtime Dynamic = 0 W

          Branch Target Buffer:
            Area = 0.186524 mm^2
            Peak Dynamic = 0.059268 W
            Subthreshold Leakage = 0.00465747 W
            Subthreshold Leakage with power gating = 0.00270432 W
            Gate Leakage = 7.13769e-05 W
            Runtime Dynamic = 0 W

          Branch Predictor:
            Area = 0.036046 mm^2
            Peak Dynamic = 0.02117 W
            Subthreshold Leakage = 0.000991335 W
            Subthreshold Leakage with power gating = 0.000578338 W
            Gate Leakage = 1.31326e-05 W
            Runtime Dynamic = 0 W

              Global Predictor:
                Area = 0.0122599 mm^2
                Peak Dynamic = 0.00687234 W
                Subthreshold Leakage = 0.000368869 W
                Subthreshold Leakage with power gating = 0.000216136 W
                Gate Leakage = 4.75216e-06 W
                Runtime Dynamic = 0 W

              Local Predictor:
              L1_Local Predictor:
                Area = 0.00588309 mm^2
                Peak Dynamic = 0.0041416 W
                Subthreshold Leakage = 0.000195204 W
                Subthreshold Leakage with power gating = 0.000113194 W
                Gate Leakage = 2.68765e-06 W
                Runtime Dynamic = 0 W

              L2_Local Predictor:
                Area = 0.00299577 mm^2
                Peak Dynamic = 0.00205293 W
                Subthreshold Leakage = 0.000107724 W
                Subthreshold Leakage with power gating = 6.1471e-05 W
                Gate Leakage = 1.64109e-06 W
                Runtime Dynamic = 0 W

              Chooser:
                Area = 0.0122599 mm^2
                Peak Dynamic = 0.00687234 W
                Subthreshold Leakage = 0.000368869 W
                Subthreshold Leakage with power gating = 0.000216136 W
                Gate Leakage = 4.75216e-06 W
                Runtime Dynamic = 0 W

              RAS:
                Area = 0.00264738 mm^2
                Peak Dynamic = 0.00328372 W
                Subthreshold Leakage = 5.83929e-05 W
                Subthreshold Leakage with power gating = 3.28722e-05 W
                Gate Leakage = 9.40608e-07 W
                Runtime Dynamic = 0 W

          Instruction Buffer:
            Area = 0.00953762 mm^2
            Peak Dynamic = 0.530088 W
            Subthreshold Leakage = 0.000136711 W
            Subthreshold Leakage with power gating = 7.09986e-05 W
            Gate Leakage = 2.25735e-06 W
            Runtime Dynamic = 0 W

          Instruction Decoder:
            Area = 0.640954 mm^2
            Peak Dynamic = 0.349878 W
            Subthreshold Leakage = 0.0191833 W
            Subthreshold Leakage with power gating = 0.00863248 W
            Gate Leakage = 0.000321652 W
            Runtime Dynamic = 0 W

      Renaming Unit:
        Area = 0.398932 mm^2
        Peak Dynamic = 8.69359 W
        Subthreshold Leakage = 0.0109372 W
        Subthreshold Leakage with power gating = 0.00606856 W
        Gate Leakage = 0.000384701 W
        Runtime Dynamic = 3.80773e-11 W

          Int Front End RAT:
            Area = 0.21217 mm^2
            Peak Dynamic = 7.13042 W
            Subthreshold Leakage = 0.00602709 W
            Subthreshold Leakage with power gating = 0.00343544 W
            Gate Leakage = 0.00019896 W
            Runtime Dynamic = 0 W

          FP Front End RAT:
            Area = 0.0680121 mm^2
            Peak Dynamic = 1.35733 W
            Subthreshold Leakage = 0.00307484 W
            Subthreshold Leakage with power gating = 0.00175266 W
            Gate Leakage = 9.92553e-05 W
            Runtime Dynamic = 0 W

          Free List:
            Area = 0.102513 mm^2
            Peak Dynamic = 0.110214 W
            Subthreshold Leakage = 0.000354903 W
            Subthreshold Leakage with power gating = 0.000214298 W
            Gate Leakage = 4.37705e-06 W
            Runtime Dynamic = 0 W

      Load Store Unit:
        Area = 3.82362 mm^2
        Peak Dynamic = 0.384698 W
        Subthreshold Leakage = 0.0568103 W
        Subthreshold Leakage with power gating = 0.0282651 W
        Gate Leakage = 0.00100861 W
        Runtime Dynamic = 3.80773e-11 W

          Data Cache:
            Area = 3.1028 mm^2
            Peak Dynamic = 0.384698 W
            Subthreshold Leakage = 0.0540038 W
            Subthreshold Leakage with power gating = 0.0268431 W
            Gate Leakage = 0.000899052 W
            Runtime Dynamic = 0 W

          LoadQ:
            Area = 0.0208402 mm^2
            Peak Dynamic = 0 W
            Subthreshold Leakage = 0.000561618 W
            Subthreshold Leakage with power gating = 0.000320122 W
            Gate Leakage = 1.1987e-05 W
            Runtime Dynamic = 0 W

          StoreQ:
            Area = 0.0248506 mm^2
            Peak Dynamic = 0 W
            Subthreshold Leakage = 0.000764494 W
            Subthreshold Leakage with power gating = 0.000435762 W
            Gate Leakage = 1.54675e-05 W
            Runtime Dynamic = 0 W

      Memory Management Unit:
        Area = 0.0534534 mm^2
        Peak Dynamic = 0.0478185 W
        Subthreshold Leakage = 0.0028353 W
        Subthreshold Leakage with power gating = 0.00143848 W
        Gate Leakage = 0.000108584 W
        Runtime Dynamic = 3.80773e-11 W

          Itlb:
            Area = 0.0153781 mm^2
            Peak Dynamic = 0 W
            Subthreshold Leakage = 0.000525402 W
            Subthreshold Leakage with power gating = 0.000299479 W
            Gate Leakage = 1.04742e-05 W
            Runtime Dynamic = 0 W

          Dtlb:
            Area = 0.0218389 mm^2
            Peak Dynamic = 0 W
            Subthreshold Leakage = 0.000829526 W
            Subthreshold Leakage with power gating = 0.00047283 W
            Gate Leakage = 1.60011e-05 W
            Runtime Dynamic = 0 W

      Execution Unit:
        Area = 12.5101 mm^2
        Peak Dynamic = 119.985 W
        Subthreshold Leakage = 0.263602 W
        Subthreshold Leakage with power gating = 0.120668 W
        Gate Leakage = 0.00812329 W
        Runtime Dynamic = 0.268092 W

          Register Files:
            Area = 0.274572 mm^2
            Peak Dynamic = 0 W
            Subthreshold Leakage = 0.0011996 W
            Subthreshold Leakage with power gating = 0.000558105 W
            Gate Leakage = 2.52418e-05 W
            Runtime Dynamic = 0 W

              Integer RF:
                Area = 0.175302 mm^2
                Peak Dynamic = 0 W
                Subthreshold Leakage = 0.000764222 W
                Subthreshold Leakage with power gating = 0.0003514 W
                Gate Leakage = 1.6485e-05 W
                Runtime Dynamic = 0 W

              Floating Point RF:
                Area = 0.0992699 mm^2
                Peak Dynamic = 0 W
                Subthreshold Leakage = 0.000435376 W
                Subthreshold Leakage with power gating = 0.000206704 W
                Gate Leakage = 8.75685e-06 W
                Runtime Dynamic = 0 W

          Instruction Scheduler:
            Area = 10.6135 mm^2
            Peak Dynamic = 119.985 W
            Subthreshold Leakage = 0.192581 W
            Subthreshold Leakage with power gating = 0.0886908 W
            Gate Leakage = 0.00650973 W
            Runtime Dynamic = 0 W

              Instruction Window:
                Area = 0.601548 mm^2
                Peak Dynamic = 1.48955 W
                Subthreshold Leakage = 0.0124658 W
                Subthreshold Leakage with power gating = 0.00710224 W
                Gate Leakage = 0.000274914 W
                Runtime Dynamic = 0 W

              FP Instruction Window:
                Area = 0.084547 mm^2
                Peak Dynamic = 0.391146 W
                Subthreshold Leakage = 0.0011635 W
                Subthreshold Leakage with power gating = 0.000659943 W
                Gate Leakage = 2.63293e-05 W
                Runtime Dynamic = 0 W

              ROB:
                Area = 9.92741 mm^2
                Peak Dynamic = 118.104 W
                Subthreshold Leakage = 0.178952 W
                Subthreshold Leakage with power gating = 0.0809286 W
                Gate Leakage = 0.00620849 W
                Runtime Dynamic = 0 W

          Integer ALUs (Count: 9 ):
            Area = 0.34609 mm^2
            Peak Dynamic = 0 W
            Subthreshold Leakage = 0.0261022 W
            Subthreshold Leakage with power gating = 0.011746 W
            Gate Leakage = 0.000575286 W
            Runtime Dynamic = 0.044682 W

          Floating Point Units (FPUs) (Count: 2 ):
            Area = 1.11344 mm^2
            Peak Dynamic = 0 W
            Subthreshold Leakage = 0.020994 W
            Subthreshold Leakage with power gating = 0.0094473 W
            Gate Leakage = 0.000462702 W
            Runtime Dynamic = 0.134046 W

          Complex ALUs (Mul/Div) (Count: 1 ):
            Area = 0.115363 mm^2
            Peak Dynamic = 0 W
            Subthreshold Leakage = 0.00870074 W
            Subthreshold Leakage with power gating = 0.00391533 W
            Gate Leakage = 0.000191762 W
            Runtime Dynamic = 0.0893639 W

          Results Broadcast Bus:
            Area Overhead = 0.030867 mm^2
            Peak Dynamic = 0 W
            Subthreshold Leakage = 0.0125437 W
            Subthreshold Leakage with power gating = 0.00564468 W
            Gate Leakage = 0.000276461 W
            Runtime Dynamic = 0 W

    L2
    Area = 4.97248 mm^2
    Peak Dynamic = 0 W
    Subthreshold Leakage = 0.211997 W
    Subthreshold Leakage with power gating = 0.120751 W
    Gate Leakage = 0.00064227 W
    Runtime Dynamic = 2.49066e-10 W

*****************************************************************************************
      L3
      Area = 113.584 mm^2
      Peak Dynamic = 0.0672267 W
      Subthreshold Leakage = 2.5046 W
      Subthreshold Leakage with power gating = 1.43505 W
      Gate Leakage = 0.00469644 W
      Runtime Dynamic = 0.0255546 W

*****************************************************************************************
BUSES
      Area = 2.85438 mm^2
      Peak Dynamic = 0 W
      Subthreshold Leakage = 0.0243787 W
      Subthreshold Leakage with power gating = 0.0109704 W
      Gate Leakage = 0.000762709 W
      Runtime Dynamic = 0 W

      Bus: 
        Area = 2.85438 mm^2
        Peak Dynamic = 0 W
        Subthreshold Leakage = 0.0243787 W
        Subthreshold Leakage with power gating = 0.0109704 W
        Gate Leakage = 0.000762709 W
        Runtime Dynamic = 0 W

*****************************************************************************************
