McPAT (version 1.0 of Aug, 2013) is computing the target processor...
 
Warning: ReorderBuffer array structure cannot satisfy latency constraint.
Warning: ReorderBuffer array structure cannot satisfy latency constraint.
Warning: ReorderBuffer array structure cannot satisfy latency constraint.
Warning: ReorderBuffer array structure cannot satisfy latency constraint.
Warning: ReorderBuffer array structure cannot satisfy latency constraint.
Warning: ReorderBuffer array structure cannot satisfy latency constraint.
Warning: ReorderBuffer array structure cannot satisfy latency constraint.
Warning: ReorderBuffer array structure cannot satisfy latency constraint.
Warning: ReorderBuffer array structure cannot satisfy latency constraint.
Warning: ReorderBuffer array structure cannot satisfy latency constraint.
Warning: ReorderBuffer array structure cannot satisfy latency constraint.
Warning: ReorderBuffer array structure cannot satisfy latency constraint.
Warning: ReorderBuffer array structure cannot satisfy latency constraint.
Warning: ReorderBuffer array structure cannot satisfy latency constraint.
Warning: ReorderBuffer array structure cannot satisfy latency constraint.
Warning: ReorderBuffer array structure cannot satisfy latency constraint.
Warning: ReorderBuffer array structure cannot satisfy latency constraint.
Warning: ReorderBuffer array structure cannot satisfy latency constraint.
Warning: ReorderBuffer array structure cannot satisfy latency constraint.
Warning: ReorderBuffer array structure cannot satisfy latency constraint.
Warning: ReorderBuffer array structure cannot satisfy latency constraint.
Warning: ReorderBuffer array structure cannot satisfy latency constraint.
Warning: ReorderBuffer array structure cannot satisfy latency constraint.
Warning: ReorderBuffer array structure cannot satisfy latency constraint.
Warning: ReorderBuffer array structure cannot satisfy latency constraint.
Warning: ReorderBuffer array structure cannot satisfy latency constraint.
Warning: ReorderBuffer array structure cannot satisfy latency constraint.
Warning: ReorderBuffer array structure cannot satisfy latency constraint.
Warning: ReorderBuffer array structure cannot satisfy latency constraint.
Warning: ReorderBuffer array structure cannot satisfy latency constraint.
Warning: ReorderBuffer array structure cannot satisfy latency constraint.
Warning: ReorderBuffer array structure cannot satisfy latency constraint.

McPAT (version 1.0 of Aug, 2013) results  (current print level is 5)
*****************************************************************************************
  Technology 22 nm
  Using Long Channel Devices When Appropriate
  Interconnect metal projection= aggressive interconnect technology projection
  Core clock Rate(MHz) 4100

*****************************************************************************************
Processor: 
  Area = 938.559 mm^2
  Peak Power = 4199.58 W
  Total Leakage = 24.5968 W
  Peak Dynamic = 4174.98 W
  Subthreshold Leakage = 24.1714 W
  Subthreshold Leakage with power gating = 12.4178 W
  Gate Leakage = 0.425334 W
  Runtime Dynamic = 86.1564 W

  Total Cores: 32 cores 
  Device Type= ITRS high performance device type
    Area = 822.12 mm^2
    Peak Dynamic = 4174.89 W
    Subthreshold Leakage = 21.6425 W
    Subthreshold Leakage with power gating = 10.824 W
    Gate Leakage = 0.419875 W
    Runtime Dynamic = 86.1227 W

  Total L3s: 
  Device Type= ITRS high performance device type
    Area = 113.584 mm^2
    Peak Dynamic = 0.088476 W
    Subthreshold Leakage = 2.5046 W
    Subthreshold Leakage with power gating = 1.43505 W
    Gate Leakage = 0.00469644 W
    Runtime Dynamic = 0.0337445 W

  Total NoCs (Network/Bus): 
  Device Type= ITRS high performance device type
    Area = 2.85438 mm^2
    Peak Dynamic = 0 W
    Subthreshold Leakage = 0.0243787 W
    Subthreshold Leakage with power gating = 0.0109704 W
    Gate Leakage = 0.000762709 W
    Runtime Dynamic = 0 W

*****************************************************************************************
Core:
      Area = 25.6912 mm^2
      Peak Dynamic = 134.468 W
      Subthreshold Leakage = 0.676327 W
      Subthreshold Leakage with power gating = 0.338249 W
      Gate Leakage = 0.0131211 W
      Runtime Dynamic = 27.6753 W

      Instruction Fetch Unit:
        Area = 1.77831 mm^2
        Peak Dynamic = 3.19828 W
        Subthreshold Leakage = 0.0489032 W
        Subthreshold Leakage with power gating = 0.0244982 W
        Gate Leakage = 0.00106307 W
        Runtime Dynamic = 0.178228 W

          Instruction Cache:
            Area = 0.889009 mm^2
            Peak Dynamic = 2.15187 W
            Subthreshold Leakage = 0.0224541 W
            Subthreshold Leakage with power gating = 0.0118459 W
            Gate Leakage = 0.000572546 W
            Runtime Dynamic = 0.0715945 W

          Branch Target Buffer:
            Area = 0.186524 mm^2
            Peak Dynamic = 0.059268 W
            Subthreshold Leakage = 0.00465747 W
            Subthreshold Leakage with power gating = 0.00270432 W
            Gate Leakage = 7.13769e-05 W
            Runtime Dynamic = 0.000643565 W

          Branch Predictor:
            Area = 0.036046 mm^2
            Peak Dynamic = 0.02117 W
            Subthreshold Leakage = 0.000991335 W
            Subthreshold Leakage with power gating = 0.000578338 W
            Gate Leakage = 1.31326e-05 W
            Runtime Dynamic = 0.00057904 W

              Global Predictor:
                Area = 0.0122599 mm^2
                Peak Dynamic = 0.00687234 W
                Subthreshold Leakage = 0.000368869 W
                Subthreshold Leakage with power gating = 0.000216136 W
                Gate Leakage = 4.75216e-06 W
                Runtime Dynamic = 7.86071e-05 W

              Local Predictor:
              L1_Local Predictor:
                Area = 0.00588309 mm^2
                Peak Dynamic = 0.0041416 W
                Subthreshold Leakage = 0.000195204 W
                Subthreshold Leakage with power gating = 0.000113194 W
                Gate Leakage = 2.68765e-06 W
                Runtime Dynamic = 4.86628e-05 W

              L2_Local Predictor:
                Area = 0.00299577 mm^2
                Peak Dynamic = 0.00205293 W
                Subthreshold Leakage = 0.000107724 W
                Subthreshold Leakage with power gating = 6.1471e-05 W
                Gate Leakage = 1.64109e-06 W
                Runtime Dynamic = 2.41179e-05 W

              Chooser:
                Area = 0.0122599 mm^2
                Peak Dynamic = 0.00687234 W
                Subthreshold Leakage = 0.000368869 W
                Subthreshold Leakage with power gating = 0.000216136 W
                Gate Leakage = 4.75216e-06 W
                Runtime Dynamic = 7.86071e-05 W

              RAS:
                Area = 0.00264738 mm^2
                Peak Dynamic = 0.00328372 W
                Subthreshold Leakage = 5.83929e-05 W
                Subthreshold Leakage with power gating = 3.28722e-05 W
                Gate Leakage = 9.40608e-07 W
                Runtime Dynamic = 0.000373163 W

          Instruction Buffer:
            Area = 0.00953762 mm^2
            Peak Dynamic = 0.530088 W
            Subthreshold Leakage = 0.000136711 W
            Subthreshold Leakage with power gating = 7.09986e-05 W
            Gate Leakage = 2.25735e-06 W
            Runtime Dynamic = 0.0529686 W

          Instruction Decoder:
            Area = 0.640954 mm^2
            Peak Dynamic = 0.349878 W
            Subthreshold Leakage = 0.0191833 W
            Subthreshold Leakage with power gating = 0.00863248 W
            Gate Leakage = 0.000321652 W
            Runtime Dynamic = 0.052442 W

      Renaming Unit:
        Area = 0.398932 mm^2
        Peak Dynamic = 8.69359 W
        Subthreshold Leakage = 0.0109372 W
        Subthreshold Leakage with power gating = 0.00606856 W
        Gate Leakage = 0.000384701 W
        Runtime Dynamic = 1.10811 W

          Int Front End RAT:
            Area = 0.21217 mm^2
            Peak Dynamic = 7.13042 W
            Subthreshold Leakage = 0.00602709 W
            Subthreshold Leakage with power gating = 0.00343544 W
            Gate Leakage = 0.00019896 W
            Runtime Dynamic = 1.06334 W

          FP Front End RAT:
            Area = 0.0680121 mm^2
            Peak Dynamic = 1.35733 W
            Subthreshold Leakage = 0.00307484 W
            Subthreshold Leakage with power gating = 0.00175266 W
            Gate Leakage = 9.92553e-05 W
            Runtime Dynamic = 0.0111312 W

          Free List:
            Area = 0.102513 mm^2
            Peak Dynamic = 0.110214 W
            Subthreshold Leakage = 0.000354903 W
            Subthreshold Leakage with power gating = 0.000214298 W
            Gate Leakage = 4.37705e-06 W
            Runtime Dynamic = 0.0336418 W

      Load Store Unit:
        Area = 3.82362 mm^2
        Peak Dynamic = 2.13588 W
        Subthreshold Leakage = 0.0568103 W
        Subthreshold Leakage with power gating = 0.0282651 W
        Gate Leakage = 0.00100861 W
        Runtime Dynamic = 1.24145 W

          Data Cache:
            Area = 3.1028 mm^2
            Peak Dynamic = 2.02418 W
            Subthreshold Leakage = 0.0540038 W
            Subthreshold Leakage with power gating = 0.0268431 W
            Gate Leakage = 0.000899052 W
            Runtime Dynamic = 1.1309 W

          LoadQ:
            Area = 0.0208402 mm^2
            Peak Dynamic = 0.0312054 W
            Subthreshold Leakage = 0.000561618 W
            Subthreshold Leakage with power gating = 0.000320122 W
            Gate Leakage = 1.1987e-05 W
            Runtime Dynamic = 0.0312054 W

          StoreQ:
            Area = 0.0248506 mm^2
            Peak Dynamic = 0.0396734 W
            Subthreshold Leakage = 0.000764494 W
            Subthreshold Leakage with power gating = 0.000435762 W
            Gate Leakage = 1.54675e-05 W
            Runtime Dynamic = 0.0793468 W

      Memory Management Unit:
        Area = 0.0534534 mm^2
        Peak Dynamic = 0.12026 W
        Subthreshold Leakage = 0.0028353 W
        Subthreshold Leakage with power gating = 0.00143848 W
        Gate Leakage = 0.000108584 W
        Runtime Dynamic = 0.0256901 W

          Itlb:
            Area = 0.0153781 mm^2
            Peak Dynamic = 0.0285021 W
            Subthreshold Leakage = 0.000525402 W
            Subthreshold Leakage with power gating = 0.000299479 W
            Gate Leakage = 1.04742e-05 W
            Runtime Dynamic = 0.00197221 W

          Dtlb:
            Area = 0.0218389 mm^2
            Peak Dynamic = 0.0235283 W
            Subthreshold Leakage = 0.000829526 W
            Subthreshold Leakage with power gating = 0.00047283 W
            Gate Leakage = 1.60011e-05 W
            Runtime Dynamic = 0.0237179 W

      Execution Unit:
        Area = 12.5101 mm^2
        Peak Dynamic = 120.3 W
        Subthreshold Leakage = 0.263602 W
        Subthreshold Leakage with power gating = 0.120668 W
        Gate Leakage = 0.00812329 W
        Runtime Dynamic = 25.1092 W

          Register Files:
            Area = 0.274572 mm^2
            Peak Dynamic = 0.0490485 W
            Subthreshold Leakage = 0.0011996 W
            Subthreshold Leakage with power gating = 0.000558105 W
            Gate Leakage = 2.52418e-05 W
            Runtime Dynamic = 0.0462065 W

              Integer RF:
                Area = 0.175302 mm^2
                Peak Dynamic = 0.04423 W
                Subthreshold Leakage = 0.000764222 W
                Subthreshold Leakage with power gating = 0.0003514 W
                Gate Leakage = 1.6485e-05 W
                Runtime Dynamic = 0.0409645 W

              Floating Point RF:
                Area = 0.0992699 mm^2
                Peak Dynamic = 0.00481849 W
                Subthreshold Leakage = 0.000435376 W
                Subthreshold Leakage with power gating = 0.000206704 W
                Gate Leakage = 8.75685e-06 W
                Runtime Dynamic = 0.00524201 W

          Instruction Scheduler:
            Area = 10.6135 mm^2
            Peak Dynamic = 119.985 W
            Subthreshold Leakage = 0.192581 W
            Subthreshold Leakage with power gating = 0.0886908 W
            Gate Leakage = 0.00650973 W
            Runtime Dynamic = 23.9746 W

              Instruction Window:
                Area = 0.601548 mm^2
                Peak Dynamic = 1.48955 W
                Subthreshold Leakage = 0.0124658 W
                Subthreshold Leakage with power gating = 0.00710224 W
                Gate Leakage = 0.000274914 W
                Runtime Dynamic = 0.291018 W

              FP Instruction Window:
                Area = 0.084547 mm^2
                Peak Dynamic = 0.391146 W
                Subthreshold Leakage = 0.0011635 W
                Subthreshold Leakage with power gating = 0.000659943 W
                Gate Leakage = 2.63293e-05 W
                Runtime Dynamic = 0.11367 W

              ROB:
                Area = 9.92741 mm^2
                Peak Dynamic = 118.104 W
                Subthreshold Leakage = 0.178952 W
                Subthreshold Leakage with power gating = 0.0809286 W
                Gate Leakage = 0.00620849 W
                Runtime Dynamic = 23.57 W

          Integer ALUs (Count: 9 ):
            Area = 0.34609 mm^2
            Peak Dynamic = 0.113211 W
            Subthreshold Leakage = 0.0261022 W
            Subthreshold Leakage with power gating = 0.011746 W
            Gate Leakage = 0.000575286 W
            Runtime Dynamic = 0.188915 W

          Floating Point Units (FPUs) (Count: 2 ):
            Area = 1.11344 mm^2
            Peak Dynamic = 0.0143288 W
            Subthreshold Leakage = 0.020994 W
            Subthreshold Leakage with power gating = 0.0094473 W
            Gate Leakage = 0.000462702 W
            Runtime Dynamic = 0.140111 W

          Complex ALUs (Mul/Div) (Count: 1 ):
            Area = 0.115363 mm^2
            Peak Dynamic = 0.00452232 W
            Subthreshold Leakage = 0.00870074 W
            Subthreshold Leakage with power gating = 0.00391533 W
            Gate Leakage = 0.000191762 W
            Runtime Dynamic = 0.0926831 W

          Results Broadcast Bus:
            Area Overhead = 0.030867 mm^2
            Peak Dynamic = 0.124473 W
            Subthreshold Leakage = 0.0125437 W
            Subthreshold Leakage with power gating = 0.00564468 W
            Gate Leakage = 0.000276461 W
            Runtime Dynamic = 0.666675 W

    L2
    Area = 4.97248 mm^2
    Peak Dynamic = 0.0200047 W
    Subthreshold Leakage = 0.211997 W
    Subthreshold Leakage with power gating = 0.120751 W
    Gate Leakage = 0.00064227 W
    Runtime Dynamic = 0.012612 W

*****************************************************************************************
Core:
      Area = 25.6912 mm^2
      Peak Dynamic = 132.808 W
      Subthreshold Leakage = 0.676327 W
      Subthreshold Leakage with power gating = 0.338249 W
      Gate Leakage = 0.0131211 W
      Runtime Dynamic = 16.9771 W

      Instruction Fetch Unit:
        Area = 1.77831 mm^2
        Peak Dynamic = 2.60886 W
        Subthreshold Leakage = 0.0489032 W
        Subthreshold Leakage with power gating = 0.0244982 W
        Gate Leakage = 0.00106307 W
        Runtime Dynamic = 0.14869 W

          Instruction Cache:
            Area = 0.889009 mm^2
            Peak Dynamic = 1.5851 W
            Subthreshold Leakage = 0.0224541 W
            Subthreshold Leakage with power gating = 0.0118459 W
            Gate Leakage = 0.000572546 W
            Runtime Dynamic = 0.0699681 W

          Branch Target Buffer:
            Area = 0.186524 mm^2
            Peak Dynamic = 0.059268 W
            Subthreshold Leakage = 0.00465747 W
            Subthreshold Leakage with power gating = 0.00270432 W
            Gate Leakage = 7.13769e-05 W
            Runtime Dynamic = 0.000606052 W

          Branch Predictor:
            Area = 0.036046 mm^2
            Peak Dynamic = 0.02117 W
            Subthreshold Leakage = 0.000991335 W
            Subthreshold Leakage with power gating = 0.000578338 W
            Gate Leakage = 1.31326e-05 W
            Runtime Dynamic = 0.000468694 W

              Global Predictor:
                Area = 0.0122599 mm^2
                Peak Dynamic = 0.00687234 W
                Subthreshold Leakage = 0.000368869 W
                Subthreshold Leakage with power gating = 0.000216136 W
                Gate Leakage = 4.75216e-06 W
                Runtime Dynamic = 7.40043e-05 W

              Local Predictor:
              L1_Local Predictor:
                Area = 0.00588309 mm^2
                Peak Dynamic = 0.0041416 W
                Subthreshold Leakage = 0.000195204 W
                Subthreshold Leakage with power gating = 0.000113194 W
                Gate Leakage = 2.68765e-06 W
                Runtime Dynamic = 4.58071e-05 W

              L2_Local Predictor:
                Area = 0.00299577 mm^2
                Peak Dynamic = 0.00205293 W
                Subthreshold Leakage = 0.000107724 W
                Subthreshold Leakage with power gating = 6.1471e-05 W
                Gate Leakage = 1.64109e-06 W
                Runtime Dynamic = 2.27025e-05 W

              Chooser:
                Area = 0.0122599 mm^2
                Peak Dynamic = 0.00687234 W
                Subthreshold Leakage = 0.000368869 W
                Subthreshold Leakage with power gating = 0.000216136 W
                Gate Leakage = 4.75216e-06 W
                Runtime Dynamic = 7.40043e-05 W

              RAS:
                Area = 0.00264738 mm^2
                Peak Dynamic = 0.00328372 W
                Subthreshold Leakage = 5.83929e-05 W
                Subthreshold Leakage with power gating = 3.28722e-05 W
                Gate Leakage = 9.40608e-07 W
                Runtime Dynamic = 0.000274878 W

          Instruction Buffer:
            Area = 0.00953762 mm^2
            Peak Dynamic = 0.530088 W
            Subthreshold Leakage = 0.000136711 W
            Subthreshold Leakage with power gating = 7.09986e-05 W
            Gate Leakage = 2.25735e-06 W
            Runtime Dynamic = 0.0390176 W

          Instruction Decoder:
            Area = 0.640954 mm^2
            Peak Dynamic = 0.349878 W
            Subthreshold Leakage = 0.0191833 W
            Subthreshold Leakage with power gating = 0.00863248 W
            Gate Leakage = 0.000321652 W
            Runtime Dynamic = 0.0386297 W

      Renaming Unit:
        Area = 0.398932 mm^2
        Peak Dynamic = 8.69359 W
        Subthreshold Leakage = 0.0109372 W
        Subthreshold Leakage with power gating = 0.00606856 W
        Gate Leakage = 0.000384701 W
        Runtime Dynamic = 0.817484 W

          Int Front End RAT:
            Area = 0.21217 mm^2
            Peak Dynamic = 7.13042 W
            Subthreshold Leakage = 0.00602709 W
            Subthreshold Leakage with power gating = 0.00343544 W
            Gate Leakage = 0.00019896 W
            Runtime Dynamic = 0.782184 W

          FP Front End RAT:
            Area = 0.0680121 mm^2
            Peak Dynamic = 1.35733 W
            Subthreshold Leakage = 0.00307484 W
            Subthreshold Leakage with power gating = 0.00175266 W
            Gate Leakage = 9.92553e-05 W
            Runtime Dynamic = 0.0104 W

          Free List:
            Area = 0.102513 mm^2
            Peak Dynamic = 0.110214 W
            Subthreshold Leakage = 0.000354903 W
            Subthreshold Leakage with power gating = 0.000214298 W
            Gate Leakage = 4.37705e-06 W
            Runtime Dynamic = 0.0249002 W

      Load Store Unit:
        Area = 3.82362 mm^2
        Peak Dynamic = 1.18058 W
        Subthreshold Leakage = 0.0568103 W
        Subthreshold Leakage with power gating = 0.0282651 W
        Gate Leakage = 0.00100861 W
        Runtime Dynamic = 0.55221 W

          Data Cache:
            Area = 3.1028 mm^2
            Peak Dynamic = 1.12981 W
            Subthreshold Leakage = 0.0540038 W
            Subthreshold Leakage with power gating = 0.0268431 W
            Gate Leakage = 0.000899052 W
            Runtime Dynamic = 0.501966 W

          LoadQ:
            Area = 0.0208402 mm^2
            Peak Dynamic = 0.0141823 W
            Subthreshold Leakage = 0.000561618 W
            Subthreshold Leakage with power gating = 0.000320122 W
            Gate Leakage = 1.1987e-05 W
            Runtime Dynamic = 0.0141823 W

          StoreQ:
            Area = 0.0248506 mm^2
            Peak Dynamic = 0.0180308 W
            Subthreshold Leakage = 0.000764494 W
            Subthreshold Leakage with power gating = 0.000435762 W
            Gate Leakage = 1.54675e-05 W
            Runtime Dynamic = 0.0360616 W

      Memory Management Unit:
        Area = 0.0534534 mm^2
        Peak Dynamic = 0.0887833 W
        Subthreshold Leakage = 0.0028353 W
        Subthreshold Leakage with power gating = 0.00143848 W
        Gate Leakage = 0.000108584 W
        Runtime Dynamic = 0.0127287 W

          Itlb:
            Area = 0.0153781 mm^2
            Peak Dynamic = 0.0209951 W
            Subthreshold Leakage = 0.000525402 W
            Subthreshold Leakage with power gating = 0.000299479 W
            Gate Leakage = 1.04742e-05 W
            Runtime Dynamic = 0.00192759 W

          Dtlb:
            Area = 0.0218389 mm^2
            Peak Dynamic = 0.0106932 W
            Subthreshold Leakage = 0.000829526 W
            Subthreshold Leakage with power gating = 0.00047283 W
            Gate Leakage = 1.60011e-05 W
            Runtime Dynamic = 0.0108011 W

      Execution Unit:
        Area = 12.5101 mm^2
        Peak Dynamic = 120.225 W
        Subthreshold Leakage = 0.263602 W
        Subthreshold Leakage with power gating = 0.120668 W
        Gate Leakage = 0.00812329 W
        Runtime Dynamic = 15.4425 W

          Register Files:
            Area = 0.274572 mm^2
            Peak Dynamic = 0.0379721 W
            Subthreshold Leakage = 0.0011996 W
            Subthreshold Leakage with power gating = 0.000558105 W
            Gate Leakage = 2.52418e-05 W
            Runtime Dynamic = 0.0340364 W

              Integer RF:
                Area = 0.175302 mm^2
                Peak Dynamic = 0.0334703 W
                Subthreshold Leakage = 0.000764222 W
                Subthreshold Leakage with power gating = 0.0003514 W
                Gate Leakage = 1.6485e-05 W
                Runtime Dynamic = 0.0301751 W

              Floating Point RF:
                Area = 0.0992699 mm^2
                Peak Dynamic = 0.0045018 W
                Subthreshold Leakage = 0.000435376 W
                Subthreshold Leakage with power gating = 0.000206704 W
                Gate Leakage = 8.75685e-06 W
                Runtime Dynamic = 0.00386135 W

          Instruction Scheduler:
            Area = 10.6135 mm^2
            Peak Dynamic = 119.985 W
            Subthreshold Leakage = 0.192581 W
            Subthreshold Leakage with power gating = 0.0886908 W
            Gate Leakage = 0.00650973 W
            Runtime Dynamic = 14.6387 W

              Instruction Window:
                Area = 0.601548 mm^2
                Peak Dynamic = 1.48955 W
                Subthreshold Leakage = 0.0124658 W
                Subthreshold Leakage with power gating = 0.00710224 W
                Gate Leakage = 0.000274914 W
                Runtime Dynamic = 0.214369 W

              FP Instruction Window:
                Area = 0.084547 mm^2
                Peak Dynamic = 0.391146 W
                Subthreshold Leakage = 0.0011635 W
                Subthreshold Leakage with power gating = 0.000659943 W
                Gate Leakage = 2.63293e-05 W
                Runtime Dynamic = 0.0837315 W

              ROB:
                Area = 9.92741 mm^2
                Peak Dynamic = 118.104 W
                Subthreshold Leakage = 0.178952 W
                Subthreshold Leakage with power gating = 0.0809286 W
                Gate Leakage = 0.00620849 W
                Runtime Dynamic = 14.3406 W

          Integer ALUs (Count: 9 ):
            Area = 0.34609 mm^2
            Peak Dynamic = 0.0829772 W
            Subthreshold Leakage = 0.0261022 W
            Subthreshold Leakage with power gating = 0.011746 W
            Gate Leakage = 0.000575286 W
            Runtime Dynamic = 0.131332 W

          Floating Point Units (FPUs) (Count: 2 ):
            Area = 1.11344 mm^2
            Peak Dynamic = 0.0133871 W
            Subthreshold Leakage = 0.020994 W
            Subthreshold Leakage with power gating = 0.0094473 W
            Gate Leakage = 0.000462702 W
            Runtime Dynamic = 0.139712 W

          Complex ALUs (Mul/Div) (Count: 1 ):
            Area = 0.115363 mm^2
            Peak Dynamic = 0.00428452 W
            Subthreshold Leakage = 0.00870074 W
            Subthreshold Leakage with power gating = 0.00391533 W
            Gate Leakage = 0.000191762 W
            Runtime Dynamic = 0.0925084 W

          Results Broadcast Bus:
            Area Overhead = 0.030867 mm^2
            Peak Dynamic = 0.0945561 W
            Subthreshold Leakage = 0.0125437 W
            Subthreshold Leakage with power gating = 0.00564468 W
            Gate Leakage = 0.000276461 W
            Runtime Dynamic = 0.406215 W

    L2
    Area = 4.97248 mm^2
    Peak Dynamic = 0.0113842 W
    Subthreshold Leakage = 0.211997 W
    Subthreshold Leakage with power gating = 0.120751 W
    Gate Leakage = 0.00064227 W
    Runtime Dynamic = 0.00346524 W

*****************************************************************************************
Core:
      Area = 25.6912 mm^2
      Peak Dynamic = 132.808 W
      Subthreshold Leakage = 0.676327 W
      Subthreshold Leakage with power gating = 0.338249 W
      Gate Leakage = 0.0131211 W
      Runtime Dynamic = 16.9793 W

      Instruction Fetch Unit:
        Area = 1.77831 mm^2
        Peak Dynamic = 2.60911 W
        Subthreshold Leakage = 0.0489032 W
        Subthreshold Leakage with power gating = 0.0244982 W
        Gate Leakage = 0.00106307 W
        Runtime Dynamic = 0.148666 W

          Instruction Cache:
            Area = 0.889009 mm^2
            Peak Dynamic = 1.58534 W
            Subthreshold Leakage = 0.0224541 W
            Subthreshold Leakage with power gating = 0.0118459 W
            Gate Leakage = 0.000572546 W
            Runtime Dynamic = 0.0699292 W

          Branch Target Buffer:
            Area = 0.186524 mm^2
            Peak Dynamic = 0.059268 W
            Subthreshold Leakage = 0.00465747 W
            Subthreshold Leakage with power gating = 0.00270432 W
            Gate Leakage = 7.13769e-05 W
            Runtime Dynamic = 0.000608086 W

          Branch Predictor:
            Area = 0.036046 mm^2
            Peak Dynamic = 0.02117 W
            Subthreshold Leakage = 0.000991335 W
            Subthreshold Leakage with power gating = 0.000578338 W
            Gate Leakage = 1.31326e-05 W
            Runtime Dynamic = 0.000469387 W

              Global Predictor:
                Area = 0.0122599 mm^2
                Peak Dynamic = 0.00687234 W
                Subthreshold Leakage = 0.000368869 W
                Subthreshold Leakage with power gating = 0.000216136 W
                Gate Leakage = 4.75216e-06 W
                Runtime Dynamic = 7.42527e-05 W

              Local Predictor:
              L1_Local Predictor:
                Area = 0.00588309 mm^2
                Peak Dynamic = 0.0041416 W
                Subthreshold Leakage = 0.000195204 W
                Subthreshold Leakage with power gating = 0.000113194 W
                Gate Leakage = 2.68765e-06 W
                Runtime Dynamic = 4.59608e-05 W

              L2_Local Predictor:
                Area = 0.00299577 mm^2
                Peak Dynamic = 0.00205293 W
                Subthreshold Leakage = 0.000107724 W
                Subthreshold Leakage with power gating = 6.1471e-05 W
                Gate Leakage = 1.64109e-06 W
                Runtime Dynamic = 2.27787e-05 W

              Chooser:
                Area = 0.0122599 mm^2
                Peak Dynamic = 0.00687234 W
                Subthreshold Leakage = 0.000368869 W
                Subthreshold Leakage with power gating = 0.000216136 W
                Gate Leakage = 4.75216e-06 W
                Runtime Dynamic = 7.42527e-05 W

              RAS:
                Area = 0.00264738 mm^2
                Peak Dynamic = 0.00328372 W
                Subthreshold Leakage = 5.83929e-05 W
                Subthreshold Leakage with power gating = 3.28722e-05 W
                Gate Leakage = 9.40608e-07 W
                Runtime Dynamic = 0.00027492 W

          Instruction Buffer:
            Area = 0.00953762 mm^2
            Peak Dynamic = 0.530088 W
            Subthreshold Leakage = 0.000136711 W
            Subthreshold Leakage with power gating = 7.09986e-05 W
            Gate Leakage = 2.25735e-06 W
            Runtime Dynamic = 0.0390235 W

          Instruction Decoder:
            Area = 0.640954 mm^2
            Peak Dynamic = 0.349878 W
            Subthreshold Leakage = 0.0191833 W
            Subthreshold Leakage with power gating = 0.00863248 W
            Gate Leakage = 0.000321652 W
            Runtime Dynamic = 0.0386355 W

      Renaming Unit:
        Area = 0.398932 mm^2
        Peak Dynamic = 8.69359 W
        Subthreshold Leakage = 0.0109372 W
        Subthreshold Leakage with power gating = 0.00606856 W
        Gate Leakage = 0.000384701 W
        Runtime Dynamic = 0.817601 W

          Int Front End RAT:
            Area = 0.21217 mm^2
            Peak Dynamic = 7.13042 W
            Subthreshold Leakage = 0.00602709 W
            Subthreshold Leakage with power gating = 0.00343544 W
            Gate Leakage = 0.00019896 W
            Runtime Dynamic = 0.782297 W

          FP Front End RAT:
            Area = 0.0680121 mm^2
            Peak Dynamic = 1.35733 W
            Subthreshold Leakage = 0.00307484 W
            Subthreshold Leakage with power gating = 0.00175266 W
            Gate Leakage = 9.92553e-05 W
            Runtime Dynamic = 0.0104 W

          Free List:
            Area = 0.102513 mm^2
            Peak Dynamic = 0.110214 W
            Subthreshold Leakage = 0.000354903 W
            Subthreshold Leakage with power gating = 0.000214298 W
            Gate Leakage = 4.37705e-06 W
            Runtime Dynamic = 0.0249039 W

      Load Store Unit:
        Area = 3.82362 mm^2
        Peak Dynamic = 1.18064 W
        Subthreshold Leakage = 0.0568103 W
        Subthreshold Leakage with power gating = 0.0282651 W
        Gate Leakage = 0.00100861 W
        Runtime Dynamic = 0.552253 W

          Data Cache:
            Area = 3.1028 mm^2
            Peak Dynamic = 1.12987 W
            Subthreshold Leakage = 0.0540038 W
            Subthreshold Leakage with power gating = 0.0268431 W
            Gate Leakage = 0.000899052 W
            Runtime Dynamic = 0.502005 W

          LoadQ:
            Area = 0.0208402 mm^2
            Peak Dynamic = 0.0141835 W
            Subthreshold Leakage = 0.000561618 W
            Subthreshold Leakage with power gating = 0.000320122 W
            Gate Leakage = 1.1987e-05 W
            Runtime Dynamic = 0.0141834 W

          StoreQ:
            Area = 0.0248506 mm^2
            Peak Dynamic = 0.0180323 W
            Subthreshold Leakage = 0.000764494 W
            Subthreshold Leakage with power gating = 0.000435762 W
            Gate Leakage = 1.54675e-05 W
            Runtime Dynamic = 0.0360646 W

      Memory Management Unit:
        Area = 0.0534534 mm^2
        Peak Dynamic = 0.0887881 W
        Subthreshold Leakage = 0.0028353 W
        Subthreshold Leakage with power gating = 0.00143848 W
        Gate Leakage = 0.000108584 W
        Runtime Dynamic = 0.0127284 W

          Itlb:
            Area = 0.0153781 mm^2
            Peak Dynamic = 0.0209983 W
            Subthreshold Leakage = 0.000525402 W
            Subthreshold Leakage with power gating = 0.000299479 W
            Gate Leakage = 1.04742e-05 W
            Runtime Dynamic = 0.00192651 W

          Dtlb:
            Area = 0.0218389 mm^2
            Peak Dynamic = 0.010694 W
            Subthreshold Leakage = 0.000829526 W
            Subthreshold Leakage with power gating = 0.00047283 W
            Gate Leakage = 1.60011e-05 W
            Runtime Dynamic = 0.0108019 W

      Execution Unit:
        Area = 12.5101 mm^2
        Peak Dynamic = 120.225 W
        Subthreshold Leakage = 0.263602 W
        Subthreshold Leakage with power gating = 0.120668 W
        Gate Leakage = 0.00812329 W
        Runtime Dynamic = 15.4446 W

          Register Files:
            Area = 0.274572 mm^2
            Peak Dynamic = 0.0379765 W
            Subthreshold Leakage = 0.0011996 W
            Subthreshold Leakage with power gating = 0.000558105 W
            Gate Leakage = 2.52418e-05 W
            Runtime Dynamic = 0.0340416 W

              Integer RF:
                Area = 0.175302 mm^2
                Peak Dynamic = 0.0334747 W
                Subthreshold Leakage = 0.000764222 W
                Subthreshold Leakage with power gating = 0.0003514 W
                Gate Leakage = 1.6485e-05 W
                Runtime Dynamic = 0.0301797 W

              Floating Point RF:
                Area = 0.0992699 mm^2
                Peak Dynamic = 0.0045018 W
                Subthreshold Leakage = 0.000435376 W
                Subthreshold Leakage with power gating = 0.000206704 W
                Gate Leakage = 8.75685e-06 W
                Runtime Dynamic = 0.00386194 W

          Instruction Scheduler:
            Area = 10.6135 mm^2
            Peak Dynamic = 119.985 W
            Subthreshold Leakage = 0.192581 W
            Subthreshold Leakage with power gating = 0.0886908 W
            Gate Leakage = 0.00650973 W
            Runtime Dynamic = 14.6407 W

              Instruction Window:
                Area = 0.601548 mm^2
                Peak Dynamic = 1.48955 W
                Subthreshold Leakage = 0.0124658 W
                Subthreshold Leakage with power gating = 0.00710224 W
                Gate Leakage = 0.000274914 W
                Runtime Dynamic = 0.214401 W

              FP Instruction Window:
                Area = 0.084547 mm^2
                Peak Dynamic = 0.391146 W
                Subthreshold Leakage = 0.0011635 W
                Subthreshold Leakage with power gating = 0.000659943 W
                Gate Leakage = 2.63293e-05 W
                Runtime Dynamic = 0.0837443 W

              ROB:
                Area = 9.92741 mm^2
                Peak Dynamic = 118.104 W
                Subthreshold Leakage = 0.178952 W
                Subthreshold Leakage with power gating = 0.0809286 W
                Gate Leakage = 0.00620849 W
                Runtime Dynamic = 14.3426 W

          Integer ALUs (Count: 9 ):
            Area = 0.34609 mm^2
            Peak Dynamic = 0.0829899 W
            Subthreshold Leakage = 0.0261022 W
            Subthreshold Leakage with power gating = 0.011746 W
            Gate Leakage = 0.000575286 W
            Runtime Dynamic = 0.13134 W

          Floating Point Units (FPUs) (Count: 2 ):
            Area = 1.11344 mm^2
            Peak Dynamic = 0.0133871 W
            Subthreshold Leakage = 0.020994 W
            Subthreshold Leakage with power gating = 0.0094473 W
            Gate Leakage = 0.000462702 W
            Runtime Dynamic = 0.139712 W

          Complex ALUs (Mul/Div) (Count: 1 ):
            Area = 0.115363 mm^2
            Peak Dynamic = 0.00428452 W
            Subthreshold Leakage = 0.00870074 W
            Subthreshold Leakage with power gating = 0.00391533 W
            Gate Leakage = 0.000191762 W
            Runtime Dynamic = 0.0925084 W

          Results Broadcast Bus:
            Area Overhead = 0.030867 mm^2
            Peak Dynamic = 0.0945684 W
            Subthreshold Leakage = 0.0125437 W
            Subthreshold Leakage with power gating = 0.00564468 W
            Gate Leakage = 0.000276461 W
            Runtime Dynamic = 0.406251 W

    L2
    Area = 4.97248 mm^2
    Peak Dynamic = 0.0113818 W
    Subthreshold Leakage = 0.211997 W
    Subthreshold Leakage with power gating = 0.120751 W
    Gate Leakage = 0.00064227 W
    Runtime Dynamic = 0.00346347 W

*****************************************************************************************
Core:
      Area = 25.6912 mm^2
      Peak Dynamic = 132.809 W
      Subthreshold Leakage = 0.676327 W
      Subthreshold Leakage with power gating = 0.338249 W
      Gate Leakage = 0.0131211 W
      Runtime Dynamic = 16.9844 W

      Instruction Fetch Unit:
        Area = 1.77831 mm^2
        Peak Dynamic = 2.60966 W
        Subthreshold Leakage = 0.0489032 W
        Subthreshold Leakage with power gating = 0.0244982 W
        Gate Leakage = 0.00106307 W
        Runtime Dynamic = 0.148736 W

          Instruction Cache:
            Area = 0.889009 mm^2
            Peak Dynamic = 1.58587 W
            Subthreshold Leakage = 0.0224541 W
            Subthreshold Leakage with power gating = 0.0118459 W
            Gate Leakage = 0.000572546 W
            Runtime Dynamic = 0.0699685 W

          Branch Target Buffer:
            Area = 0.186524 mm^2
            Peak Dynamic = 0.059268 W
            Subthreshold Leakage = 0.00465747 W
            Subthreshold Leakage with power gating = 0.00270432 W
            Gate Leakage = 7.13769e-05 W
            Runtime Dynamic = 0.000611493 W

          Branch Predictor:
            Area = 0.036046 mm^2
            Peak Dynamic = 0.02117 W
            Subthreshold Leakage = 0.000991335 W
            Subthreshold Leakage with power gating = 0.000578338 W
            Gate Leakage = 1.31326e-05 W
            Runtime Dynamic = 0.000470568 W

              Global Predictor:
                Area = 0.0122599 mm^2
                Peak Dynamic = 0.00687234 W
                Subthreshold Leakage = 0.000368869 W
                Subthreshold Leakage with power gating = 0.000216136 W
                Gate Leakage = 4.75216e-06 W
                Runtime Dynamic = 7.46688e-05 W

              Local Predictor:
              L1_Local Predictor:
                Area = 0.00588309 mm^2
                Peak Dynamic = 0.0041416 W
                Subthreshold Leakage = 0.000195204 W
                Subthreshold Leakage with power gating = 0.000113194 W
                Gate Leakage = 2.68765e-06 W
                Runtime Dynamic = 4.62183e-05 W

              L2_Local Predictor:
                Area = 0.00299577 mm^2
                Peak Dynamic = 0.00205293 W
                Subthreshold Leakage = 0.000107724 W
                Subthreshold Leakage with power gating = 6.1471e-05 W
                Gate Leakage = 1.64109e-06 W
                Runtime Dynamic = 2.29063e-05 W

              Chooser:
                Area = 0.0122599 mm^2
                Peak Dynamic = 0.00687234 W
                Subthreshold Leakage = 0.000368869 W
                Subthreshold Leakage with power gating = 0.000216136 W
                Gate Leakage = 4.75216e-06 W
                Runtime Dynamic = 7.46688e-05 W

              RAS:
                Area = 0.00264738 mm^2
                Peak Dynamic = 0.00328372 W
                Subthreshold Leakage = 5.83929e-05 W
                Subthreshold Leakage with power gating = 3.28722e-05 W
                Gate Leakage = 9.40608e-07 W
                Runtime Dynamic = 0.000275012 W

          Instruction Buffer:
            Area = 0.00953762 mm^2
            Peak Dynamic = 0.530088 W
            Subthreshold Leakage = 0.000136711 W
            Subthreshold Leakage with power gating = 7.09986e-05 W
            Gate Leakage = 2.25735e-06 W
            Runtime Dynamic = 0.0390366 W

          Instruction Decoder:
            Area = 0.640954 mm^2
            Peak Dynamic = 0.349878 W
            Subthreshold Leakage = 0.0191833 W
            Subthreshold Leakage with power gating = 0.00863248 W
            Gate Leakage = 0.000321652 W
            Runtime Dynamic = 0.0386485 W

      Renaming Unit:
        Area = 0.398932 mm^2
        Peak Dynamic = 8.69359 W
        Subthreshold Leakage = 0.0109372 W
        Subthreshold Leakage with power gating = 0.00606856 W
        Gate Leakage = 0.000384701 W
        Runtime Dynamic = 0.817861 W

          Int Front End RAT:
            Area = 0.21217 mm^2
            Peak Dynamic = 7.13042 W
            Subthreshold Leakage = 0.00602709 W
            Subthreshold Leakage with power gating = 0.00343544 W
            Gate Leakage = 0.00019896 W
            Runtime Dynamic = 0.782549 W

          FP Front End RAT:
            Area = 0.0680121 mm^2
            Peak Dynamic = 1.35733 W
            Subthreshold Leakage = 0.00307484 W
            Subthreshold Leakage with power gating = 0.00175266 W
            Gate Leakage = 9.92553e-05 W
            Runtime Dynamic = 0.0104 W

          Free List:
            Area = 0.102513 mm^2
            Peak Dynamic = 0.110214 W
            Subthreshold Leakage = 0.000354903 W
            Subthreshold Leakage with power gating = 0.000214298 W
            Gate Leakage = 4.37705e-06 W
            Runtime Dynamic = 0.0249121 W

      Load Store Unit:
        Area = 3.82362 mm^2
        Peak Dynamic = 1.18077 W
        Subthreshold Leakage = 0.0568103 W
        Subthreshold Leakage with power gating = 0.0282651 W
        Gate Leakage = 0.00100861 W
        Runtime Dynamic = 0.552342 W

          Data Cache:
            Area = 3.1028 mm^2
            Peak Dynamic = 1.12999 W
            Subthreshold Leakage = 0.0540038 W
            Subthreshold Leakage with power gating = 0.0268431 W
            Gate Leakage = 0.000899052 W
            Runtime Dynamic = 0.502086 W

          LoadQ:
            Area = 0.0208402 mm^2
            Peak Dynamic = 0.0141857 W
            Subthreshold Leakage = 0.000561618 W
            Subthreshold Leakage with power gating = 0.000320122 W
            Gate Leakage = 1.1987e-05 W
            Runtime Dynamic = 0.0141857 W

          StoreQ:
            Area = 0.0248506 mm^2
            Peak Dynamic = 0.0180352 W
            Subthreshold Leakage = 0.000764494 W
            Subthreshold Leakage with power gating = 0.000435762 W
            Gate Leakage = 1.54675e-05 W
            Runtime Dynamic = 0.0360704 W

      Memory Management Unit:
        Area = 0.0534534 mm^2
        Peak Dynamic = 0.0887983 W
        Subthreshold Leakage = 0.0028353 W
        Subthreshold Leakage with power gating = 0.00143848 W
        Gate Leakage = 0.000108584 W
        Runtime Dynamic = 0.0127313 W

          Itlb:
            Area = 0.0153781 mm^2
            Peak Dynamic = 0.0210053 W
            Subthreshold Leakage = 0.000525402 W
            Subthreshold Leakage with power gating = 0.000299479 W
            Gate Leakage = 1.04742e-05 W
            Runtime Dynamic = 0.00192761 W

          Dtlb:
            Area = 0.0218389 mm^2
            Peak Dynamic = 0.0106958 W
            Subthreshold Leakage = 0.000829526 W
            Subthreshold Leakage with power gating = 0.00047283 W
            Gate Leakage = 1.60011e-05 W
            Runtime Dynamic = 0.0108037 W

      Execution Unit:
        Area = 12.5101 mm^2
        Peak Dynamic = 120.225 W
        Subthreshold Leakage = 0.263602 W
        Subthreshold Leakage with power gating = 0.120668 W
        Gate Leakage = 0.00812329 W
        Runtime Dynamic = 15.4492 W

          Register Files:
            Area = 0.274572 mm^2
            Peak Dynamic = 0.0379865 W
            Subthreshold Leakage = 0.0011996 W
            Subthreshold Leakage with power gating = 0.000558105 W
            Gate Leakage = 2.52418e-05 W
            Runtime Dynamic = 0.034053 W

              Integer RF:
                Area = 0.175302 mm^2
                Peak Dynamic = 0.0334847 W
                Subthreshold Leakage = 0.000764222 W
                Subthreshold Leakage with power gating = 0.0003514 W
                Gate Leakage = 1.6485e-05 W
                Runtime Dynamic = 0.0301898 W

              Floating Point RF:
                Area = 0.0992699 mm^2
                Peak Dynamic = 0.0045018 W
                Subthreshold Leakage = 0.000435376 W
                Subthreshold Leakage with power gating = 0.000206704 W
                Gate Leakage = 8.75685e-06 W
                Runtime Dynamic = 0.00386323 W

          Instruction Scheduler:
            Area = 10.6135 mm^2
            Peak Dynamic = 119.985 W
            Subthreshold Leakage = 0.192581 W
            Subthreshold Leakage with power gating = 0.0886908 W
            Gate Leakage = 0.00650973 W
            Runtime Dynamic = 14.6453 W

              Instruction Window:
                Area = 0.601548 mm^2
                Peak Dynamic = 1.48955 W
                Subthreshold Leakage = 0.0124658 W
                Subthreshold Leakage with power gating = 0.00710224 W
                Gate Leakage = 0.000274914 W
                Runtime Dynamic = 0.214473 W

              FP Instruction Window:
                Area = 0.084547 mm^2
                Peak Dynamic = 0.391146 W
                Subthreshold Leakage = 0.0011635 W
                Subthreshold Leakage with power gating = 0.000659943 W
                Gate Leakage = 2.63293e-05 W
                Runtime Dynamic = 0.0837723 W

              ROB:
                Area = 9.92741 mm^2
                Peak Dynamic = 118.104 W
                Subthreshold Leakage = 0.178952 W
                Subthreshold Leakage with power gating = 0.0809286 W
                Gate Leakage = 0.00620849 W
                Runtime Dynamic = 14.347 W

          Integer ALUs (Count: 9 ):
            Area = 0.34609 mm^2
            Peak Dynamic = 0.0830188 W
            Subthreshold Leakage = 0.0261022 W
            Subthreshold Leakage with power gating = 0.011746 W
            Gate Leakage = 0.000575286 W
            Runtime Dynamic = 0.131361 W

          Floating Point Units (FPUs) (Count: 2 ):
            Area = 1.11344 mm^2
            Peak Dynamic = 0.0133871 W
            Subthreshold Leakage = 0.020994 W
            Subthreshold Leakage with power gating = 0.0094473 W
            Gate Leakage = 0.000462702 W
            Runtime Dynamic = 0.139712 W

          Complex ALUs (Mul/Div) (Count: 1 ):
            Area = 0.115363 mm^2
            Peak Dynamic = 0.00428452 W
            Subthreshold Leakage = 0.00870074 W
            Subthreshold Leakage with power gating = 0.00391533 W
            Gate Leakage = 0.000191762 W
            Runtime Dynamic = 0.0925084 W

          Results Broadcast Bus:
            Area Overhead = 0.030867 mm^2
            Peak Dynamic = 0.0945961 W
            Subthreshold Leakage = 0.0125437 W
            Subthreshold Leakage with power gating = 0.00564468 W
            Gate Leakage = 0.000276461 W
            Runtime Dynamic = 0.406344 W

    L2
    Area = 4.97248 mm^2
    Peak Dynamic = 0.0113842 W
    Subthreshold Leakage = 0.211997 W
    Subthreshold Leakage with power gating = 0.120751 W
    Gate Leakage = 0.00064227 W
    Runtime Dynamic = 0.00346455 W

*****************************************************************************************
Core:
      Area = 25.6912 mm^2
      Peak Dynamic = 130.071 W
      Subthreshold Leakage = 0.676327 W
      Subthreshold Leakage with power gating = 0.338249 W
      Gate Leakage = 0.0131211 W
      Runtime Dynamic = 0.268092 W

      Instruction Fetch Unit:
        Area = 1.77831 mm^2
        Peak Dynamic = 0.960404 W
        Subthreshold Leakage = 0.0489032 W
        Subthreshold Leakage with power gating = 0.0244982 W
        Gate Leakage = 0.00106307 W
        Runtime Dynamic = 4.99722e-11 W

          Instruction Cache:
            Area = 0.889009 mm^2
            Peak Dynamic = 0 W
            Subthreshold Leakage = 0.0224541 W
            Subthreshold Leakage with power gating = 0.0118459 W
            Gate Leakage = 0.000572546 W
            Runtime Dynamic = 0 W

          Branch Target Buffer:
            Area = 0.186524 mm^2
            Peak Dynamic = 0.059268 W
            Subthreshold Leakage = 0.00465747 W
            Subthreshold Leakage with power gating = 0.00270432 W
            Gate Leakage = 7.13769e-05 W
            Runtime Dynamic = 0 W

          Branch Predictor:
            Area = 0.036046 mm^2
            Peak Dynamic = 0.02117 W
            Subthreshold Leakage = 0.000991335 W
            Subthreshold Leakage with power gating = 0.000578338 W
            Gate Leakage = 1.31326e-05 W
            Runtime Dynamic = 0 W

              Global Predictor:
                Area = 0.0122599 mm^2
                Peak Dynamic = 0.00687234 W
                Subthreshold Leakage = 0.000368869 W
                Subthreshold Leakage with power gating = 0.000216136 W
                Gate Leakage = 4.75216e-06 W
                Runtime Dynamic = 0 W

              Local Predictor:
              L1_Local Predictor:
                Area = 0.00588309 mm^2
                Peak Dynamic = 0.0041416 W
                Subthreshold Leakage = 0.000195204 W
                Subthreshold Leakage with power gating = 0.000113194 W
                Gate Leakage = 2.68765e-06 W
                Runtime Dynamic = 0 W

              L2_Local Predictor:
                Area = 0.00299577 mm^2
                Peak Dynamic = 0.00205293 W
                Subthreshold Leakage = 0.000107724 W
                Subthreshold Leakage with power gating = 6.1471e-05 W
                Gate Leakage = 1.64109e-06 W
                Runtime Dynamic = 0 W

              Chooser:
                Area = 0.0122599 mm^2
                Peak Dynamic = 0.00687234 W
                Subthreshold Leakage = 0.000368869 W
                Subthreshold Leakage with power gating = 0.000216136 W
                Gate Leakage = 4.75216e-06 W
                Runtime Dynamic = 0 W

              RAS:
                Area = 0.00264738 mm^2
                Peak Dynamic = 0.00328372 W
                Subthreshold Leakage = 5.83929e-05 W
                Subthreshold Leakage with power gating = 3.28722e-05 W
                Gate Leakage = 9.40608e-07 W
                Runtime Dynamic = 0 W

          Instruction Buffer:
            Area = 0.00953762 mm^2
            Peak Dynamic = 0.530088 W
            Subthreshold Leakage = 0.000136711 W
            Subthreshold Leakage with power gating = 7.09986e-05 W
            Gate Leakage = 2.25735e-06 W
            Runtime Dynamic = 0 W

          Instruction Decoder:
            Area = 0.640954 mm^2
            Peak Dynamic = 0.349878 W
            Subthreshold Leakage = 0.0191833 W
            Subthreshold Leakage with power gating = 0.00863248 W
            Gate Leakage = 0.000321652 W
            Runtime Dynamic = 0 W

      Renaming Unit:
        Area = 0.398932 mm^2
        Peak Dynamic = 8.69359 W
        Subthreshold Leakage = 0.0109372 W
        Subthreshold Leakage with power gating = 0.00606856 W
        Gate Leakage = 0.000384701 W
        Runtime Dynamic = 4.99722e-11 W

          Int Front End RAT:
            Area = 0.21217 mm^2
            Peak Dynamic = 7.13042 W
            Subthreshold Leakage = 0.00602709 W
            Subthreshold Leakage with power gating = 0.00343544 W
            Gate Leakage = 0.00019896 W
            Runtime Dynamic = 0 W

          FP Front End RAT:
            Area = 0.0680121 mm^2
            Peak Dynamic = 1.35733 W
            Subthreshold Leakage = 0.00307484 W
            Subthreshold Leakage with power gating = 0.00175266 W
            Gate Leakage = 9.92553e-05 W
            Runtime Dynamic = 0 W

          Free List:
            Area = 0.102513 mm^2
            Peak Dynamic = 0.110214 W
            Subthreshold Leakage = 0.000354903 W
            Subthreshold Leakage with power gating = 0.000214298 W
            Gate Leakage = 4.37705e-06 W
            Runtime Dynamic = 0 W

      Load Store Unit:
        Area = 3.82362 mm^2
        Peak Dynamic = 0.384698 W
        Subthreshold Leakage = 0.0568103 W
        Subthreshold Leakage with power gating = 0.0282651 W
        Gate Leakage = 0.00100861 W
        Runtime Dynamic = 4.99722e-11 W

          Data Cache:
            Area = 3.1028 mm^2
            Peak Dynamic = 0.384698 W
            Subthreshold Leakage = 0.0540038 W
            Subthreshold Leakage with power gating = 0.0268431 W
            Gate Leakage = 0.000899052 W
            Runtime Dynamic = 0 W

          LoadQ:
            Area = 0.0208402 mm^2
            Peak Dynamic = 0 W
            Subthreshold Leakage = 0.000561618 W
            Subthreshold Leakage with power gating = 0.000320122 W
            Gate Leakage = 1.1987e-05 W
            Runtime Dynamic = 0 W

          StoreQ:
            Area = 0.0248506 mm^2
            Peak Dynamic = 0 W
            Subthreshold Leakage = 0.000764494 W
            Subthreshold Leakage with power gating = 0.000435762 W
            Gate Leakage = 1.54675e-05 W
            Runtime Dynamic = 0 W

      Memory Management Unit:
        Area = 0.0534534 mm^2
        Peak Dynamic = 0.0478185 W
        Subthreshold Leakage = 0.0028353 W
        Subthreshold Leakage with power gating = 0.00143848 W
        Gate Leakage = 0.000108584 W
        Runtime Dynamic = 4.99722e-11 W

          Itlb:
            Area = 0.0153781 mm^2
            Peak Dynamic = 0 W
            Subthreshold Leakage = 0.000525402 W
            Subthreshold Leakage with power gating = 0.000299479 W
            Gate Leakage = 1.04742e-05 W
            Runtime Dynamic = 0 W

          Dtlb:
            Area = 0.0218389 mm^2
            Peak Dynamic = 0 W
            Subthreshold Leakage = 0.000829526 W
            Subthreshold Leakage with power gating = 0.00047283 W
            Gate Leakage = 1.60011e-05 W
            Runtime Dynamic = 0 W

      Execution Unit:
        Area = 12.5101 mm^2
        Peak Dynamic = 119.985 W
        Subthreshold Leakage = 0.263602 W
        Subthreshold Leakage with power gating = 0.120668 W
        Gate Leakage = 0.00812329 W
        Runtime Dynamic = 0.268092 W

          Register Files:
            Area = 0.274572 mm^2
            Peak Dynamic = 0 W
            Subthreshold Leakage = 0.0011996 W
            Subthreshold Leakage with power gating = 0.000558105 W
            Gate Leakage = 2.52418e-05 W
            Runtime Dynamic = 0 W

              Integer RF:
                Area = 0.175302 mm^2
                Peak Dynamic = 0 W
                Subthreshold Leakage = 0.000764222 W
                Subthreshold Leakage with power gating = 0.0003514 W
                Gate Leakage = 1.6485e-05 W
                Runtime Dynamic = 0 W

              Floating Point RF:
                Area = 0.0992699 mm^2
                Peak Dynamic = 0 W
                Subthreshold Leakage = 0.000435376 W
                Subthreshold Leakage with power gating = 0.000206704 W
                Gate Leakage = 8.75685e-06 W
                Runtime Dynamic = 0 W

          Instruction Scheduler:
            Area = 10.6135 mm^2
            Peak Dynamic = 119.985 W
            Subthreshold Leakage = 0.192581 W
            Subthreshold Leakage with power gating = 0.0886908 W
            Gate Leakage = 0.00650973 W
            Runtime Dynamic = 0 W

              Instruction Window:
                Area = 0.601548 mm^2
                Peak Dynamic = 1.48955 W
                Subthreshold Leakage = 0.0124658 W
                Subthreshold Leakage with power gating = 0.00710224 W
                Gate Leakage = 0.000274914 W
                Runtime Dynamic = 0 W

              FP Instruction Window:
                Area = 0.084547 mm^2
                Peak Dynamic = 0.391146 W
                Subthreshold Leakage = 0.0011635 W
                Subthreshold Leakage with power gating = 0.000659943 W
                Gate Leakage = 2.63293e-05 W
                Runtime Dynamic = 0 W

              ROB:
                Area = 9.92741 mm^2
                Peak Dynamic = 118.104 W
                Subthreshold Leakage = 0.178952 W
                Subthreshold Leakage with power gating = 0.0809286 W
                Gate Leakage = 0.00620849 W
                Runtime Dynamic = 0 W

          Integer ALUs (Count: 9 ):
            Area = 0.34609 mm^2
            Peak Dynamic = 0 W
            Subthreshold Leakage = 0.0261022 W
            Subthreshold Leakage with power gating = 0.011746 W
            Gate Leakage = 0.000575286 W
            Runtime Dynamic = 0.044682 W

          Floating Point Units (FPUs) (Count: 2 ):
            Area = 1.11344 mm^2
            Peak Dynamic = 0 W
            Subthreshold Leakage = 0.020994 W
            Subthreshold Leakage with power gating = 0.0094473 W
            Gate Leakage = 0.000462702 W
            Runtime Dynamic = 0.134046 W

          Complex ALUs (Mul/Div) (Count: 1 ):
            Area = 0.115363 mm^2
            Peak Dynamic = 0 W
            Subthreshold Leakage = 0.00870074 W
            Subthreshold Leakage with power gating = 0.00391533 W
            Gate Leakage = 0.000191762 W
            Runtime Dynamic = 0.0893639 W

          Results Broadcast Bus:
            Area Overhead = 0.030867 mm^2
            Peak Dynamic = 0 W
            Subthreshold Leakage = 0.0125437 W
            Subthreshold Leakage with power gating = 0.00564468 W
            Gate Leakage = 0.000276461 W
            Runtime Dynamic = 0 W

    L2
    Area = 4.97248 mm^2
    Peak Dynamic = 0 W
    Subthreshold Leakage = 0.211997 W
    Subthreshold Leakage with power gating = 0.120751 W
    Gate Leakage = 0.00064227 W
    Runtime Dynamic = 3.26872e-10 W

*****************************************************************************************
Core:
      Area = 25.6912 mm^2
      Peak Dynamic = 130.071 W
      Subthreshold Leakage = 0.676327 W
      Subthreshold Leakage with power gating = 0.338249 W
      Gate Leakage = 0.0131211 W
      Runtime Dynamic = 0.268092 W

      Instruction Fetch Unit:
        Area = 1.77831 mm^2
        Peak Dynamic = 0.960404 W
        Subthreshold Leakage = 0.0489032 W
        Subthreshold Leakage with power gating = 0.0244982 W
        Gate Leakage = 0.00106307 W
        Runtime Dynamic = 4.99722e-11 W

          Instruction Cache:
            Area = 0.889009 mm^2
            Peak Dynamic = 0 W
            Subthreshold Leakage = 0.0224541 W
            Subthreshold Leakage with power gating = 0.0118459 W
            Gate Leakage = 0.000572546 W
            Runtime Dynamic = 0 W

          Branch Target Buffer:
            Area = 0.186524 mm^2
            Peak Dynamic = 0.059268 W
            Subthreshold Leakage = 0.00465747 W
            Subthreshold Leakage with power gating = 0.00270432 W
            Gate Leakage = 7.13769e-05 W
            Runtime Dynamic = 0 W

          Branch Predictor:
            Area = 0.036046 mm^2
            Peak Dynamic = 0.02117 W
            Subthreshold Leakage = 0.000991335 W
            Subthreshold Leakage with power gating = 0.000578338 W
            Gate Leakage = 1.31326e-05 W
            Runtime Dynamic = 0 W

              Global Predictor:
                Area = 0.0122599 mm^2
                Peak Dynamic = 0.00687234 W
                Subthreshold Leakage = 0.000368869 W
                Subthreshold Leakage with power gating = 0.000216136 W
                Gate Leakage = 4.75216e-06 W
                Runtime Dynamic = 0 W

              Local Predictor:
              L1_Local Predictor:
                Area = 0.00588309 mm^2
                Peak Dynamic = 0.0041416 W
                Subthreshold Leakage = 0.000195204 W
                Subthreshold Leakage with power gating = 0.000113194 W
                Gate Leakage = 2.68765e-06 W
                Runtime Dynamic = 0 W

              L2_Local Predictor:
                Area = 0.00299577 mm^2
                Peak Dynamic = 0.00205293 W
                Subthreshold Leakage = 0.000107724 W
                Subthreshold Leakage with power gating = 6.1471e-05 W
                Gate Leakage = 1.64109e-06 W
                Runtime Dynamic = 0 W

              Chooser:
                Area = 0.0122599 mm^2
                Peak Dynamic = 0.00687234 W
                Subthreshold Leakage = 0.000368869 W
                Subthreshold Leakage with power gating = 0.000216136 W
                Gate Leakage = 4.75216e-06 W
                Runtime Dynamic = 0 W

              RAS:
                Area = 0.00264738 mm^2
                Peak Dynamic = 0.00328372 W
                Subthreshold Leakage = 5.83929e-05 W
                Subthreshold Leakage with power gating = 3.28722e-05 W
                Gate Leakage = 9.40608e-07 W
                Runtime Dynamic = 0 W

          Instruction Buffer:
            Area = 0.00953762 mm^2
            Peak Dynamic = 0.530088 W
            Subthreshold Leakage = 0.000136711 W
            Subthreshold Leakage with power gating = 7.09986e-05 W
            Gate Leakage = 2.25735e-06 W
            Runtime Dynamic = 0 W

          Instruction Decoder:
            Area = 0.640954 mm^2
            Peak Dynamic = 0.349878 W
            Subthreshold Leakage = 0.0191833 W
            Subthreshold Leakage with power gating = 0.00863248 W
            Gate Leakage = 0.000321652 W
            Runtime Dynamic = 0 W

      Renaming Unit:
        Area = 0.398932 mm^2
        Peak Dynamic = 8.69359 W
        Subthreshold Leakage = 0.0109372 W
        Subthreshold Leakage with power gating = 0.00606856 W
        Gate Leakage = 0.000384701 W
        Runtime Dynamic = 4.99722e-11 W

          Int Front End RAT:
            Area = 0.21217 mm^2
            Peak Dynamic = 7.13042 W
            Subthreshold Leakage = 0.00602709 W
            Subthreshold Leakage with power gating = 0.00343544 W
            Gate Leakage = 0.00019896 W
            Runtime Dynamic = 0 W

          FP Front End RAT:
            Area = 0.0680121 mm^2
            Peak Dynamic = 1.35733 W
            Subthreshold Leakage = 0.00307484 W
            Subthreshold Leakage with power gating = 0.00175266 W
            Gate Leakage = 9.92553e-05 W
            Runtime Dynamic = 0 W

          Free List:
            Area = 0.102513 mm^2
            Peak Dynamic = 0.110214 W
            Subthreshold Leakage = 0.000354903 W
            Subthreshold Leakage with power gating = 0.000214298 W
            Gate Leakage = 4.37705e-06 W
            Runtime Dynamic = 0 W

      Load Store Unit:
        Area = 3.82362 mm^2
        Peak Dynamic = 0.384698 W
        Subthreshold Leakage = 0.0568103 W
        Subthreshold Leakage with power gating = 0.0282651 W
        Gate Leakage = 0.00100861 W
        Runtime Dynamic = 4.99722e-11 W

          Data Cache:
            Area = 3.1028 mm^2
            Peak Dynamic = 0.384698 W
            Subthreshold Leakage = 0.0540038 W
            Subthreshold Leakage with power gating = 0.0268431 W
            Gate Leakage = 0.000899052 W
            Runtime Dynamic = 0 W

          LoadQ:
            Area = 0.0208402 mm^2
            Peak Dynamic = 0 W
            Subthreshold Leakage = 0.000561618 W
            Subthreshold Leakage with power gating = 0.000320122 W
            Gate Leakage = 1.1987e-05 W
            Runtime Dynamic = 0 W

          StoreQ:
            Area = 0.0248506 mm^2
            Peak Dynamic = 0 W
            Subthreshold Leakage = 0.000764494 W
            Subthreshold Leakage with power gating = 0.000435762 W
            Gate Leakage = 1.54675e-05 W
            Runtime Dynamic = 0 W

      Memory Management Unit:
        Area = 0.0534534 mm^2
        Peak Dynamic = 0.0478185 W
        Subthreshold Leakage = 0.0028353 W
        Subthreshold Leakage with power gating = 0.00143848 W
        Gate Leakage = 0.000108584 W
        Runtime Dynamic = 4.99722e-11 W

          Itlb:
            Area = 0.0153781 mm^2
            Peak Dynamic = 0 W
            Subthreshold Leakage = 0.000525402 W
            Subthreshold Leakage with power gating = 0.000299479 W
            Gate Leakage = 1.04742e-05 W
            Runtime Dynamic = 0 W

          Dtlb:
            Area = 0.0218389 mm^2
            Peak Dynamic = 0 W
            Subthreshold Leakage = 0.000829526 W
            Subthreshold Leakage with power gating = 0.00047283 W
            Gate Leakage = 1.60011e-05 W
            Runtime Dynamic = 0 W

      Execution Unit:
        Area = 12.5101 mm^2
        Peak Dynamic = 119.985 W
        Subthreshold Leakage = 0.263602 W
        Subthreshold Leakage with power gating = 0.120668 W
        Gate Leakage = 0.00812329 W
        Runtime Dynamic = 0.268092 W

          Register Files:
            Area = 0.274572 mm^2
            Peak Dynamic = 0 W
            Subthreshold Leakage = 0.0011996 W
            Subthreshold Leakage with power gating = 0.000558105 W
            Gate Leakage = 2.52418e-05 W
            Runtime Dynamic = 0 W

              Integer RF:
                Area = 0.175302 mm^2
                Peak Dynamic = 0 W
                Subthreshold Leakage = 0.000764222 W
                Subthreshold Leakage with power gating = 0.0003514 W
                Gate Leakage = 1.6485e-05 W
                Runtime Dynamic = 0 W

              Floating Point RF:
                Area = 0.0992699 mm^2
                Peak Dynamic = 0 W
                Subthreshold Leakage = 0.000435376 W
                Subthreshold Leakage with power gating = 0.000206704 W
                Gate Leakage = 8.75685e-06 W
                Runtime Dynamic = 0 W

          Instruction Scheduler:
            Area = 10.6135 mm^2
            Peak Dynamic = 119.985 W
            Subthreshold Leakage = 0.192581 W
            Subthreshold Leakage with power gating = 0.0886908 W
            Gate Leakage = 0.00650973 W
            Runtime Dynamic = 0 W

              Instruction Window:
                Area = 0.601548 mm^2
                Peak Dynamic = 1.48955 W
                Subthreshold Leakage = 0.0124658 W
                Subthreshold Leakage with power gating = 0.00710224 W
                Gate Leakage = 0.000274914 W
                Runtime Dynamic = 0 W

              FP Instruction Window:
                Area = 0.084547 mm^2
                Peak Dynamic = 0.391146 W
                Subthreshold Leakage = 0.0011635 W
                Subthreshold Leakage with power gating = 0.000659943 W
                Gate Leakage = 2.63293e-05 W
                Runtime Dynamic = 0 W

              ROB:
                Area = 9.92741 mm^2
                Peak Dynamic = 118.104 W
                Subthreshold Leakage = 0.178952 W
                Subthreshold Leakage with power gating = 0.0809286 W
                Gate Leakage = 0.00620849 W
                Runtime Dynamic = 0 W

          Integer ALUs (Count: 9 ):
            Area = 0.34609 mm^2
            Peak Dynamic = 0 W
            Subthreshold Leakage = 0.0261022 W
            Subthreshold Leakage with power gating = 0.011746 W
            Gate Leakage = 0.000575286 W
            Runtime Dynamic = 0.044682 W

          Floating Point Units (FPUs) (Count: 2 ):
            Area = 1.11344 mm^2
            Peak Dynamic = 0 W
            Subthreshold Leakage = 0.020994 W
            Subthreshold Leakage with power gating = 0.0094473 W
            Gate Leakage = 0.000462702 W
            Runtime Dynamic = 0.134046 W

          Complex ALUs (Mul/Div) (Count: 1 ):
            Area = 0.115363 mm^2
            Peak Dynamic = 0 W
            Subthreshold Leakage = 0.00870074 W
            Subthreshold Leakage with power gating = 0.00391533 W
            Gate Leakage = 0.000191762 W
            Runtime Dynamic = 0.0893639 W

          Results Broadcast Bus:
            Area Overhead = 0.030867 mm^2
            Peak Dynamic = 0 W
            Subthreshold Leakage = 0.0125437 W
            Subthreshold Leakage with power gating = 0.00564468 W
            Gate Leakage = 0.000276461 W
            Runtime Dynamic = 0 W

    L2
    Area = 4.97248 mm^2
    Peak Dynamic = 0 W
    Subthreshold Leakage = 0.211997 W
    Subthreshold Leakage with power gating = 0.120751 W
    Gate Leakage = 0.00064227 W
    Runtime Dynamic = 3.26872e-10 W

*****************************************************************************************
Core:
      Area = 25.6912 mm^2
      Peak Dynamic = 130.071 W
      Subthreshold Leakage = 0.676327 W
      Subthreshold Leakage with power gating = 0.338249 W
      Gate Leakage = 0.0131211 W
      Runtime Dynamic = 0.268092 W

      Instruction Fetch Unit:
        Area = 1.77831 mm^2
        Peak Dynamic = 0.960404 W
        Subthreshold Leakage = 0.0489032 W
        Subthreshold Leakage with power gating = 0.0244982 W
        Gate Leakage = 0.00106307 W
        Runtime Dynamic = 4.99722e-11 W

          Instruction Cache:
            Area = 0.889009 mm^2
            Peak Dynamic = 0 W
            Subthreshold Leakage = 0.0224541 W
            Subthreshold Leakage with power gating = 0.0118459 W
            Gate Leakage = 0.000572546 W
            Runtime Dynamic = 0 W

          Branch Target Buffer:
            Area = 0.186524 mm^2
            Peak Dynamic = 0.059268 W
            Subthreshold Leakage = 0.00465747 W
            Subthreshold Leakage with power gating = 0.00270432 W
            Gate Leakage = 7.13769e-05 W
            Runtime Dynamic = 0 W

          Branch Predictor:
            Area = 0.036046 mm^2
            Peak Dynamic = 0.02117 W
            Subthreshold Leakage = 0.000991335 W
            Subthreshold Leakage with power gating = 0.000578338 W
            Gate Leakage = 1.31326e-05 W
            Runtime Dynamic = 0 W

              Global Predictor:
                Area = 0.0122599 mm^2
                Peak Dynamic = 0.00687234 W
                Subthreshold Leakage = 0.000368869 W
                Subthreshold Leakage with power gating = 0.000216136 W
                Gate Leakage = 4.75216e-06 W
                Runtime Dynamic = 0 W

              Local Predictor:
              L1_Local Predictor:
                Area = 0.00588309 mm^2
                Peak Dynamic = 0.0041416 W
                Subthreshold Leakage = 0.000195204 W
                Subthreshold Leakage with power gating = 0.000113194 W
                Gate Leakage = 2.68765e-06 W
                Runtime Dynamic = 0 W

              L2_Local Predictor:
                Area = 0.00299577 mm^2
                Peak Dynamic = 0.00205293 W
                Subthreshold Leakage = 0.000107724 W
                Subthreshold Leakage with power gating = 6.1471e-05 W
                Gate Leakage = 1.64109e-06 W
                Runtime Dynamic = 0 W

              Chooser:
                Area = 0.0122599 mm^2
                Peak Dynamic = 0.00687234 W
                Subthreshold Leakage = 0.000368869 W
                Subthreshold Leakage with power gating = 0.000216136 W
                Gate Leakage = 4.75216e-06 W
                Runtime Dynamic = 0 W

              RAS:
                Area = 0.00264738 mm^2
                Peak Dynamic = 0.00328372 W
                Subthreshold Leakage = 5.83929e-05 W
                Subthreshold Leakage with power gating = 3.28722e-05 W
                Gate Leakage = 9.40608e-07 W
                Runtime Dynamic = 0 W

          Instruction Buffer:
            Area = 0.00953762 mm^2
            Peak Dynamic = 0.530088 W
            Subthreshold Leakage = 0.000136711 W
            Subthreshold Leakage with power gating = 7.09986e-05 W
            Gate Leakage = 2.25735e-06 W
            Runtime Dynamic = 0 W

          Instruction Decoder:
            Area = 0.640954 mm^2
            Peak Dynamic = 0.349878 W
            Subthreshold Leakage = 0.0191833 W
            Subthreshold Leakage with power gating = 0.00863248 W
            Gate Leakage = 0.000321652 W
            Runtime Dynamic = 0 W

      Renaming Unit:
        Area = 0.398932 mm^2
        Peak Dynamic = 8.69359 W
        Subthreshold Leakage = 0.0109372 W
        Subthreshold Leakage with power gating = 0.00606856 W
        Gate Leakage = 0.000384701 W
        Runtime Dynamic = 4.99722e-11 W

          Int Front End RAT:
            Area = 0.21217 mm^2
            Peak Dynamic = 7.13042 W
            Subthreshold Leakage = 0.00602709 W
            Subthreshold Leakage with power gating = 0.00343544 W
            Gate Leakage = 0.00019896 W
            Runtime Dynamic = 0 W

          FP Front End RAT:
            Area = 0.0680121 mm^2
            Peak Dynamic = 1.35733 W
            Subthreshold Leakage = 0.00307484 W
            Subthreshold Leakage with power gating = 0.00175266 W
            Gate Leakage = 9.92553e-05 W
            Runtime Dynamic = 0 W

          Free List:
            Area = 0.102513 mm^2
            Peak Dynamic = 0.110214 W
            Subthreshold Leakage = 0.000354903 W
            Subthreshold Leakage with power gating = 0.000214298 W
            Gate Leakage = 4.37705e-06 W
            Runtime Dynamic = 0 W

      Load Store Unit:
        Area = 3.82362 mm^2
        Peak Dynamic = 0.384698 W
        Subthreshold Leakage = 0.0568103 W
        Subthreshold Leakage with power gating = 0.0282651 W
        Gate Leakage = 0.00100861 W
        Runtime Dynamic = 4.99722e-11 W

          Data Cache:
            Area = 3.1028 mm^2
            Peak Dynamic = 0.384698 W
            Subthreshold Leakage = 0.0540038 W
            Subthreshold Leakage with power gating = 0.0268431 W
            Gate Leakage = 0.000899052 W
            Runtime Dynamic = 0 W

          LoadQ:
            Area = 0.0208402 mm^2
            Peak Dynamic = 0 W
            Subthreshold Leakage = 0.000561618 W
            Subthreshold Leakage with power gating = 0.000320122 W
            Gate Leakage = 1.1987e-05 W
            Runtime Dynamic = 0 W

          StoreQ:
            Area = 0.0248506 mm^2
            Peak Dynamic = 0 W
            Subthreshold Leakage = 0.000764494 W
            Subthreshold Leakage with power gating = 0.000435762 W
            Gate Leakage = 1.54675e-05 W
            Runtime Dynamic = 0 W

      Memory Management Unit:
        Area = 0.0534534 mm^2
        Peak Dynamic = 0.0478185 W
        Subthreshold Leakage = 0.0028353 W
        Subthreshold Leakage with power gating = 0.00143848 W
        Gate Leakage = 0.000108584 W
        Runtime Dynamic = 4.99722e-11 W

          Itlb:
            Area = 0.0153781 mm^2
            Peak Dynamic = 0 W
            Subthreshold Leakage = 0.000525402 W
            Subthreshold Leakage with power gating = 0.000299479 W
            Gate Leakage = 1.04742e-05 W
            Runtime Dynamic = 0 W

          Dtlb:
            Area = 0.0218389 mm^2
            Peak Dynamic = 0 W
            Subthreshold Leakage = 0.000829526 W
            Subthreshold Leakage with power gating = 0.00047283 W
            Gate Leakage = 1.60011e-05 W
            Runtime Dynamic = 0 W

      Execution Unit:
        Area = 12.5101 mm^2
        Peak Dynamic = 119.985 W
        Subthreshold Leakage = 0.263602 W
        Subthreshold Leakage with power gating = 0.120668 W
        Gate Leakage = 0.00812329 W
        Runtime Dynamic = 0.268092 W

          Register Files:
            Area = 0.274572 mm^2
            Peak Dynamic = 0 W
            Subthreshold Leakage = 0.0011996 W
            Subthreshold Leakage with power gating = 0.000558105 W
            Gate Leakage = 2.52418e-05 W
            Runtime Dynamic = 0 W

              Integer RF:
                Area = 0.175302 mm^2
                Peak Dynamic = 0 W
                Subthreshold Leakage = 0.000764222 W
                Subthreshold Leakage with power gating = 0.0003514 W
                Gate Leakage = 1.6485e-05 W
                Runtime Dynamic = 0 W

              Floating Point RF:
                Area = 0.0992699 mm^2
                Peak Dynamic = 0 W
                Subthreshold Leakage = 0.000435376 W
                Subthreshold Leakage with power gating = 0.000206704 W
                Gate Leakage = 8.75685e-06 W
                Runtime Dynamic = 0 W

          Instruction Scheduler:
            Area = 10.6135 mm^2
            Peak Dynamic = 119.985 W
            Subthreshold Leakage = 0.192581 W
            Subthreshold Leakage with power gating = 0.0886908 W
            Gate Leakage = 0.00650973 W
            Runtime Dynamic = 0 W

              Instruction Window:
                Area = 0.601548 mm^2
                Peak Dynamic = 1.48955 W
                Subthreshold Leakage = 0.0124658 W
                Subthreshold Leakage with power gating = 0.00710224 W
                Gate Leakage = 0.000274914 W
                Runtime Dynamic = 0 W

              FP Instruction Window:
                Area = 0.084547 mm^2
                Peak Dynamic = 0.391146 W
                Subthreshold Leakage = 0.0011635 W
                Subthreshold Leakage with power gating = 0.000659943 W
                Gate Leakage = 2.63293e-05 W
                Runtime Dynamic = 0 W

              ROB:
                Area = 9.92741 mm^2
                Peak Dynamic = 118.104 W
                Subthreshold Leakage = 0.178952 W
                Subthreshold Leakage with power gating = 0.0809286 W
                Gate Leakage = 0.00620849 W
                Runtime Dynamic = 0 W

          Integer ALUs (Count: 9 ):
            Area = 0.34609 mm^2
            Peak Dynamic = 0 W
            Subthreshold Leakage = 0.0261022 W
            Subthreshold Leakage with power gating = 0.011746 W
            Gate Leakage = 0.000575286 W
            Runtime Dynamic = 0.044682 W

          Floating Point Units (FPUs) (Count: 2 ):
            Area = 1.11344 mm^2
            Peak Dynamic = 0 W
            Subthreshold Leakage = 0.020994 W
            Subthreshold Leakage with power gating = 0.0094473 W
            Gate Leakage = 0.000462702 W
            Runtime Dynamic = 0.134046 W

          Complex ALUs (Mul/Div) (Count: 1 ):
            Area = 0.115363 mm^2
            Peak Dynamic = 0 W
            Subthreshold Leakage = 0.00870074 W
            Subthreshold Leakage with power gating = 0.00391533 W
            Gate Leakage = 0.000191762 W
            Runtime Dynamic = 0.0893639 W

          Results Broadcast Bus:
            Area Overhead = 0.030867 mm^2
            Peak Dynamic = 0 W
            Subthreshold Leakage = 0.0125437 W
            Subthreshold Leakage with power gating = 0.00564468 W
            Gate Leakage = 0.000276461 W
            Runtime Dynamic = 0 W

    L2
    Area = 4.97248 mm^2
    Peak Dynamic = 0 W
    Subthreshold Leakage = 0.211997 W
    Subthreshold Leakage with power gating = 0.120751 W
    Gate Leakage = 0.00064227 W
    Runtime Dynamic = 3.26872e-10 W

*****************************************************************************************
Core:
      Area = 25.6912 mm^2
      Peak Dynamic = 130.071 W
      Subthreshold Leakage = 0.676327 W
      Subthreshold Leakage with power gating = 0.338249 W
      Gate Leakage = 0.0131211 W
      Runtime Dynamic = 0.268092 W

      Instruction Fetch Unit:
        Area = 1.77831 mm^2
        Peak Dynamic = 0.960404 W
        Subthreshold Leakage = 0.0489032 W
        Subthreshold Leakage with power gating = 0.0244982 W
        Gate Leakage = 0.00106307 W
        Runtime Dynamic = 4.99722e-11 W

          Instruction Cache:
            Area = 0.889009 mm^2
            Peak Dynamic = 0 W
            Subthreshold Leakage = 0.0224541 W
            Subthreshold Leakage with power gating = 0.0118459 W
            Gate Leakage = 0.000572546 W
            Runtime Dynamic = 0 W

          Branch Target Buffer:
            Area = 0.186524 mm^2
            Peak Dynamic = 0.059268 W
            Subthreshold Leakage = 0.00465747 W
            Subthreshold Leakage with power gating = 0.00270432 W
            Gate Leakage = 7.13769e-05 W
            Runtime Dynamic = 0 W

          Branch Predictor:
            Area = 0.036046 mm^2
            Peak Dynamic = 0.02117 W
[...]
                Gate Leakage = 2.68765e-06 W
                Runtime Dynamic = 0 W

              L2_Local Predictor:
                Area = 0.00299577 mm^2
                Peak Dynamic = 0.00205293 W
                Subthreshold Leakage = 0.000107724 W
                Subthreshold Leakage with power gating = 6.1471e-05 W
                Gate Leakage = 1.64109e-06 W
                Runtime Dynamic = 0 W

              Chooser:
                Area = 0.0122599 mm^2
                Peak Dynamic = 0.00687234 W
                Subthreshold Leakage = 0.000368869 W
                Subthreshold Leakage with power gating = 0.000216136 W
                Gate Leakage = 4.75216e-06 W
                Runtime Dynamic = 0 W

              RAS:
                Area = 0.00264738 mm^2
                Peak Dynamic = 0.00328372 W
                Subthreshold Leakage = 5.83929e-05 W
                Subthreshold Leakage with power gating = 3.28722e-05 W
                Gate Leakage = 9.40608e-07 W
                Runtime Dynamic = 0 W

          Instruction Buffer:
            Area = 0.00953762 mm^2
            Peak Dynamic = 0.530088 W
            Subthreshold Leakage = 0.000136711 W
            Subthreshold Leakage with power gating = 7.09986e-05 W
            Gate Leakage = 2.25735e-06 W
            Runtime Dynamic = 0 W

          Instruction Decoder:
            Area = 0.640954 mm^2
            Peak Dynamic = 0.349878 W
            Subthreshold Leakage = 0.0191833 W
            Subthreshold Leakage with power gating = 0.00863248 W
            Gate Leakage = 0.000321652 W
            Runtime Dynamic = 0 W

      Renaming Unit:
        Area = 0.398932 mm^2
        Peak Dynamic = 8.69359 W
        Subthreshold Leakage = 0.0109372 W
        Subthreshold Leakage with power gating = 0.00606856 W
        Gate Leakage = 0.000384701 W
        Runtime Dynamic = 4.99722e-11 W

          Int Front End RAT:
            Area = 0.21217 mm^2
            Peak Dynamic = 7.13042 W
            Subthreshold Leakage = 0.00602709 W
            Subthreshold Leakage with power gating = 0.00343544 W
            Gate Leakage = 0.00019896 W
            Runtime Dynamic = 0 W

          FP Front End RAT:
            Area = 0.0680121 mm^2
            Peak Dynamic = 1.35733 W
            Subthreshold Leakage = 0.00307484 W
            Subthreshold Leakage with power gating = 0.00175266 W
            Gate Leakage = 9.92553e-05 W
            Runtime Dynamic = 0 W

          Free List:
            Area = 0.102513 mm^2
            Peak Dynamic = 0.110214 W
            Subthreshold Leakage = 0.000354903 W
            Subthreshold Leakage with power gating = 0.000214298 W
            Gate Leakage = 4.37705e-06 W
            Runtime Dynamic = 0 W

      Load Store Unit:
        Area = 3.82362 mm^2
        Peak Dynamic = 0.384698 W
        Subthreshold Leakage = 0.0568103 W
        Subthreshold Leakage with power gating = 0.0282651 W
        Gate Leakage = 0.00100861 W
        Runtime Dynamic = 4.99722e-11 W

          Data Cache:
            Area = 3.1028 mm^2
            Peak Dynamic = 0.384698 W
            Subthreshold Leakage = 0.0540038 W
            Subthreshold Leakage with power gating = 0.0268431 W
            Gate Leakage = 0.000899052 W
            Runtime Dynamic = 0 W

          LoadQ:
            Area = 0.0208402 mm^2
            Peak Dynamic = 0 W
            Subthreshold Leakage = 0.000561618 W
            Subthreshold Leakage with power gating = 0.000320122 W
            Gate Leakage = 1.1987e-05 W
            Runtime Dynamic = 0 W

          StoreQ:
            Area = 0.0248506 mm^2
            Peak Dynamic = 0 W
            Subthreshold Leakage = 0.000764494 W
            Subthreshold Leakage with power gating = 0.000435762 W
            Gate Leakage = 1.54675e-05 W
            Runtime Dynamic = 0 W

      Memory Management Unit:
        Area = 0.0534534 mm^2
        Peak Dynamic = 0.0478185 W
        Subthreshold Leakage = 0.0028353 W
        Subthreshold Leakage with power gating = 0.00143848 W
        Gate Leakage = 0.000108584 W
        Runtime Dynamic = 4.99722e-11 W

          Itlb:
            Area = 0.0153781 mm^2
            Peak Dynamic = 0 W
            Subthreshold Leakage = 0.000525402 W
            Subthreshold Leakage with power gating = 0.000299479 W
            Gate Leakage = 1.04742e-05 W
            Runtime Dynamic = 0 W

          Dtlb:
            Area = 0.0218389 mm^2
            Peak Dynamic = 0 W
            Subthreshold Leakage = 0.000829526 W
            Subthreshold Leakage with power gating = 0.00047283 W
            Gate Leakage = 1.60011e-05 W
            Runtime Dynamic = 0 W

      Execution Unit:
        Area = 12.5101 mm^2
        Peak Dynamic = 119.985 W
        Subthreshold Leakage = 0.263602 W
        Subthreshold Leakage with power gating = 0.120668 W
        Gate Leakage = 0.00812329 W
        Runtime Dynamic = 0.268092 W

          Register Files:
            Area = 0.274572 mm^2
            Peak Dynamic = 0 W
            Subthreshold Leakage = 0.0011996 W
            Subthreshold Leakage with power gating = 0.000558105 W
            Gate Leakage = 2.52418e-05 W
            Runtime Dynamic = 0 W

              Integer RF:
                Area = 0.175302 mm^2
                Peak Dynamic = 0 W
                Subthreshold Leakage = 0.000764222 W
                Subthreshold Leakage with power gating = 0.0003514 W
                Gate Leakage = 1.6485e-05 W
                Runtime Dynamic = 0 W

              Floating Point RF:
                Area = 0.0992699 mm^2
                Peak Dynamic = 0 W
                Subthreshold Leakage = 0.000435376 W
                Subthreshold Leakage with power gating = 0.000206704 W
                Gate Leakage = 8.75685e-06 W
                Runtime Dynamic = 0 W

          Instruction Scheduler:
            Area = 10.6135 mm^2
            Peak Dynamic = 119.985 W
            Subthreshold Leakage = 0.192581 W
            Subthreshold Leakage with power gating = 0.0886908 W
            Gate Leakage = 0.00650973 W
            Runtime Dynamic = 0 W

              Instruction Window:
                Area = 0.601548 mm^2
                Peak Dynamic = 1.48955 W
                Subthreshold Leakage = 0.0124658 W
                Subthreshold Leakage with power gating = 0.00710224 W
                Gate Leakage = 0.000274914 W
                Runtime Dynamic = 0 W

              FP Instruction Window:
                Area = 0.084547 mm^2
                Peak Dynamic = 0.391146 W
                Subthreshold Leakage = 0.0011635 W
                Subthreshold Leakage with power gating = 0.000659943 W
                Gate Leakage = 2.63293e-05 W
                Runtime Dynamic = 0 W

              ROB:
                Area = 9.92741 mm^2
                Peak Dynamic = 118.104 W
                Subthreshold Leakage = 0.178952 W
                Subthreshold Leakage with power gating = 0.0809286 W
                Gate Leakage = 0.00620849 W
                Runtime Dynamic = 0 W

          Integer ALUs (Count: 9 ):
            Area = 0.34609 mm^2
            Peak Dynamic = 0 W
            Subthreshold Leakage = 0.0261022 W
            Subthreshold Leakage with power gating = 0.011746 W
            Gate Leakage = 0.000575286 W
            Runtime Dynamic = 0.044682 W

          Floating Point Units (FPUs) (Count: 2 ):
            Area = 1.11344 mm^2
            Peak Dynamic = 0 W
            Subthreshold Leakage = 0.020994 W
            Subthreshold Leakage with power gating = 0.0094473 W
            Gate Leakage = 0.000462702 W
            Runtime Dynamic = 0.134046 W

          Complex ALUs (Mul/Div) (Count: 1 ):
            Area = 0.115363 mm^2
            Peak Dynamic = 0 W
            Subthreshold Leakage = 0.00870074 W
            Subthreshold Leakage with power gating = 0.00391533 W
            Gate Leakage = 0.000191762 W
            Runtime Dynamic = 0.0893639 W

          Results Broadcast Bus:
            Area Overhead = 0.030867 mm^2
            Peak Dynamic = 0 W
            Subthreshold Leakage = 0.0125437 W
            Subthreshold Leakage with power gating = 0.00564468 W
            Gate Leakage = 0.000276461 W
            Runtime Dynamic = 0 W

    L2
    Area = 4.97248 mm^2
    Peak Dynamic = 0 W
    Subthreshold Leakage = 0.211997 W
    Subthreshold Leakage with power gating = 0.120751 W
    Gate Leakage = 0.00064227 W
    Runtime Dynamic = 3.26872e-10 W

*****************************************************************************************
Core:
      Area = 25.6912 mm^2
      Peak Dynamic = 130.071 W
      Subthreshold Leakage = 0.676327 W
      Subthreshold Leakage with power gating = 0.338249 W
      Gate Leakage = 0.0131211 W
      Runtime Dynamic = 0.268092 W

      Instruction Fetch Unit:
        Area = 1.77831 mm^2
        Peak Dynamic = 0.960404 W
        Subthreshold Leakage = 0.0489032 W
        Subthreshold Leakage with power gating = 0.0244982 W
        Gate Leakage = 0.00106307 W
        Runtime Dynamic = 4.99722e-11 W

          Instruction Cache:
            Area = 0.889009 mm^2
            Peak Dynamic = 0 W
            Subthreshold Leakage = 0.0224541 W
            Subthreshold Leakage with power gating = 0.0118459 W
            Gate Leakage = 0.000572546 W
            Runtime Dynamic = 0 W

          Branch Target Buffer:
            Area = 0.186524 mm^2
            Peak Dynamic = 0.059268 W
            Subthreshold Leakage = 0.00465747 W
            Subthreshold Leakage with power gating = 0.00270432 W
            Gate Leakage = 7.13769e-05 W
            Runtime Dynamic = 0 W

          Branch Predictor:
            Area = 0.036046 mm^2
            Peak Dynamic = 0.02117 W
            Subthreshold Leakage = 0.000991335 W
            Subthreshold Leakage with power gating = 0.000578338 W
            Gate Leakage = 1.31326e-05 W
            Runtime Dynamic = 0 W

              Global Predictor:
                Area = 0.0122599 mm^2
                Peak Dynamic = 0.00687234 W
                Subthreshold Leakage = 0.000368869 W
                Subthreshold Leakage with power gating = 0.000216136 W
                Gate Leakage = 4.75216e-06 W
                Runtime Dynamic = 0 W

              Local Predictor:
              L1_Local Predictor:
                Area = 0.00588309 mm^2
                Peak Dynamic = 0.0041416 W
                Subthreshold Leakage = 0.000195204 W
                Subthreshold Leakage with power gating = 0.000113194 W
                Gate Leakage = 2.68765e-06 W
                Runtime Dynamic = 0 W

              L2_Local Predictor:
                Area = 0.00299577 mm^2
                Peak Dynamic = 0.00205293 W
                Subthreshold Leakage = 0.000107724 W
                Subthreshold Leakage with power gating = 6.1471e-05 W
                Gate Leakage = 1.64109e-06 W
                Runtime Dynamic = 0 W

              Chooser:
                Area = 0.0122599 mm^2
                Peak Dynamic = 0.00687234 W
                Subthreshold Leakage = 0.000368869 W
                Subthreshold Leakage with power gating = 0.000216136 W
                Gate Leakage = 4.75216e-06 W
                Runtime Dynamic = 0 W

              RAS:
                Area = 0.00264738 mm^2
                Peak Dynamic = 0.00328372 W
                Subthreshold Leakage = 5.83929e-05 W
                Subthreshold Leakage with power gating = 3.28722e-05 W
                Gate Leakage = 9.40608e-07 W
                Runtime Dynamic = 0 W

          Instruction Buffer:
            Area = 0.00953762 mm^2
            Peak Dynamic = 0.530088 W
            Subthreshold Leakage = 0.000136711 W
            Subthreshold Leakage with power gating = 7.09986e-05 W
            Gate Leakage = 2.25735e-06 W
            Runtime Dynamic = 0 W

          Instruction Decoder:
            Area = 0.640954 mm^2
            Peak Dynamic = 0.349878 W
            Subthreshold Leakage = 0.0191833 W
            Subthreshold Leakage with power gating = 0.00863248 W
            Gate Leakage = 0.000321652 W
            Runtime Dynamic = 0 W

      Renaming Unit:
        Area = 0.398932 mm^2
        Peak Dynamic = 8.69359 W
        Subthreshold Leakage = 0.0109372 W
        Subthreshold Leakage with power gating = 0.00606856 W
        Gate Leakage = 0.000384701 W
        Runtime Dynamic = 4.99722e-11 W

          Int Front End RAT:
            Area = 0.21217 mm^2
            Peak Dynamic = 7.13042 W
            Subthreshold Leakage = 0.00602709 W
            Subthreshold Leakage with power gating = 0.00343544 W
            Gate Leakage = 0.00019896 W
            Runtime Dynamic = 0 W

          FP Front End RAT:
            Area = 0.0680121 mm^2
            Peak Dynamic = 1.35733 W
            Subthreshold Leakage = 0.00307484 W
            Subthreshold Leakage with power gating = 0.00175266 W
            Gate Leakage = 9.92553e-05 W
            Runtime Dynamic = 0 W

          Free List:
            Area = 0.102513 mm^2
            Peak Dynamic = 0.110214 W
            Subthreshold Leakage = 0.000354903 W
            Subthreshold Leakage with power gating = 0.000214298 W
            Gate Leakage = 4.37705e-06 W
            Runtime Dynamic = 0 W

      Load Store Unit:
        Area = 3.82362 mm^2
        Peak Dynamic = 0.384698 W
        Subthreshold Leakage = 0.0568103 W
        Subthreshold Leakage with power gating = 0.0282651 W
        Gate Leakage = 0.00100861 W
        Runtime Dynamic = 4.99722e-11 W

          Data Cache:
            Area = 3.1028 mm^2
            Peak Dynamic = 0.384698 W
            Subthreshold Leakage = 0.0540038 W
            Subthreshold Leakage with power gating = 0.0268431 W
            Gate Leakage = 0.000899052 W
            Runtime Dynamic = 0 W

          LoadQ:
            Area = 0.0208402 mm^2
            Peak Dynamic = 0 W
            Subthreshold Leakage = 0.000561618 W
            Subthreshold Leakage with power gating = 0.000320122 W
            Gate Leakage = 1.1987e-05 W
            Runtime Dynamic = 0 W

          StoreQ:
            Area = 0.0248506 mm^2
            Peak Dynamic = 0 W
            Subthreshold Leakage = 0.000764494 W
            Subthreshold Leakage with power gating = 0.000435762 W
            Gate Leakage = 1.54675e-05 W
            Runtime Dynamic = 0 W

      Memory Management Unit:
        Area = 0.0534534 mm^2
        Peak Dynamic = 0.0478185 W
        Subthreshold Leakage = 0.0028353 W
        Subthreshold Leakage with power gating = 0.00143848 W
        Gate Leakage = 0.000108584 W
        Runtime Dynamic = 4.99722e-11 W

          Itlb:
            Area = 0.0153781 mm^2
            Peak Dynamic = 0 W
            Subthreshold Leakage = 0.000525402 W
            Subthreshold Leakage with power gating = 0.000299479 W
            Gate Leakage = 1.04742e-05 W
            Runtime Dynamic = 0 W

          Dtlb:
            Area = 0.0218389 mm^2
            Peak Dynamic = 0 W
            Subthreshold Leakage = 0.000829526 W
            Subthreshold Leakage with power gating = 0.00047283 W
            Gate Leakage = 1.60011e-05 W
            Runtime Dynamic = 0 W

      Execution Unit:
        Area = 12.5101 mm^2
        Peak Dynamic = 119.985 W
        Subthreshold Leakage = 0.263602 W
        Subthreshold Leakage with power gating = 0.120668 W
        Gate Leakage = 0.00812329 W
        Runtime Dynamic = 0.268092 W

          Register Files:
            Area = 0.274572 mm^2
            Peak Dynamic = 0 W
            Subthreshold Leakage = 0.0011996 W
            Subthreshold Leakage with power gating = 0.000558105 W
            Gate Leakage = 2.52418e-05 W
            Runtime Dynamic = 0 W

              Integer RF:
                Area = 0.175302 mm^2
                Peak Dynamic = 0 W
                Subthreshold Leakage = 0.000764222 W
                Subthreshold Leakage with power gating = 0.0003514 W
                Gate Leakage = 1.6485e-05 W
                Runtime Dynamic = 0 W

              Floating Point RF:
                Area = 0.0992699 mm^2
                Peak Dynamic = 0 W
                Subthreshold Leakage = 0.000435376 W
                Subthreshold Leakage with power gating = 0.000206704 W
                Gate Leakage = 8.75685e-06 W
                Runtime Dynamic = 0 W

          Instruction Scheduler:
            Area = 10.6135 mm^2
            Peak Dynamic = 119.985 W
            Subthreshold Leakage = 0.192581 W
            Subthreshold Leakage with power gating = 0.0886908 W
            Gate Leakage = 0.00650973 W
            Runtime Dynamic = 0 W

              Instruction Window:
                Area = 0.601548 mm^2
                Peak Dynamic = 1.48955 W
                Subthreshold Leakage = 0.0124658 W
                Subthreshold Leakage with power gating = 0.00710224 W
                Gate Leakage = 0.000274914 W
                Runtime Dynamic = 0 W

              FP Instruction Window:
                Area = 0.084547 mm^2
                Peak Dynamic = 0.391146 W
                Subthreshold Leakage = 0.0011635 W
                Subthreshold Leakage with power gating = 0.000659943 W
                Gate Leakage = 2.63293e-05 W
                Runtime Dynamic = 0 W

              ROB:
                Area = 9.92741 mm^2
                Peak Dynamic = 118.104 W
                Subthreshold Leakage = 0.178952 W
                Subthreshold Leakage with power gating = 0.0809286 W
                Gate Leakage = 0.00620849 W
                Runtime Dynamic = 0 W

          Integer ALUs (Count: 9 ):
            Area = 0.34609 mm^2
            Peak Dynamic = 0 W
            Subthreshold Leakage = 0.0261022 W
            Subthreshold Leakage with power gating = 0.011746 W
            Gate Leakage = 0.000575286 W
            Runtime Dynamic = 0.044682 W

          Floating Point Units (FPUs) (Count: 2 ):
            Area = 1.11344 mm^2
            Peak Dynamic = 0 W
            Subthreshold Leakage = 0.020994 W
            Subthreshold Leakage with power gating = 0.0094473 W
            Gate Leakage = 0.000462702 W
            Runtime Dynamic = 0.134046 W

          Complex ALUs (Mul/Div) (Count: 1 ):
            Area = 0.115363 mm^2
            Peak Dynamic = 0 W
            Subthreshold Leakage = 0.00870074 W
            Subthreshold Leakage with power gating = 0.00391533 W
            Gate Leakage = 0.000191762 W
            Runtime Dynamic = 0.0893639 W

          Results Broadcast Bus:
            Area Overhead = 0.030867 mm^2
            Peak Dynamic = 0 W
            Subthreshold Leakage = 0.0125437 W
            Subthreshold Leakage with power gating = 0.00564468 W
            Gate Leakage = 0.000276461 W
            Runtime Dynamic = 0 W

    L2
    Area = 4.97248 mm^2
    Peak Dynamic = 0 W
    Subthreshold Leakage = 0.211997 W
    Subthreshold Leakage with power gating = 0.120751 W
    Gate Leakage = 0.00064227 W
    Runtime Dynamic = 3.26872e-10 W

*****************************************************************************************
      L3
      Area = 113.584 mm^2
      Peak Dynamic = 0.088476 W
      Subthreshold Leakage = 2.5046 W
      Subthreshold Leakage with power gating = 1.43505 W
      Gate Leakage = 0.00469644 W
      Runtime Dynamic = 0.0337445 W

*****************************************************************************************
BUSES
      Area = 2.85438 mm^2
      Peak Dynamic = 0 W
      Subthreshold Leakage = 0.0243787 W
      Subthreshold Leakage with power gating = 0.0109704 W
      Gate Leakage = 0.000762709 W
      Runtime Dynamic = 0 W

      Bus: 
        Area = 2.85438 mm^2
        Peak Dynamic = 0 W
        Subthreshold Leakage = 0.0243787 W
        Subthreshold Leakage with power gating = 0.0109704 W
        Gate Leakage = 0.000762709 W
        Runtime Dynamic = 0 W

*****************************************************************************************
