McPAT (version 1.0 of Aug, 2013) is computing the target processor...
 
Warning: ReorderBuffer array structure cannot satisfy latency constraint.
Warning: ReorderBuffer array structure cannot satisfy latency constraint.
Warning: ReorderBuffer array structure cannot satisfy latency constraint.
Warning: ReorderBuffer array structure cannot satisfy latency constraint.
Warning: ReorderBuffer array structure cannot satisfy latency constraint.
Warning: ReorderBuffer array structure cannot satisfy latency constraint.
Warning: ReorderBuffer array structure cannot satisfy latency constraint.
Warning: ReorderBuffer array structure cannot satisfy latency constraint.
Warning: ReorderBuffer array structure cannot satisfy latency constraint.
Warning: ReorderBuffer array structure cannot satisfy latency constraint.
Warning: ReorderBuffer array structure cannot satisfy latency constraint.
Warning: ReorderBuffer array structure cannot satisfy latency constraint.
Warning: ReorderBuffer array structure cannot satisfy latency constraint.
Warning: ReorderBuffer array structure cannot satisfy latency constraint.
Warning: ReorderBuffer array structure cannot satisfy latency constraint.
Warning: ReorderBuffer array structure cannot satisfy latency constraint.
Warning: ReorderBuffer array structure cannot satisfy latency constraint.
Warning: ReorderBuffer array structure cannot satisfy latency constraint.
Warning: ReorderBuffer array structure cannot satisfy latency constraint.
Warning: ReorderBuffer array structure cannot satisfy latency constraint.
Warning: ReorderBuffer array structure cannot satisfy latency constraint.
Warning: ReorderBuffer array structure cannot satisfy latency constraint.
Warning: ReorderBuffer array structure cannot satisfy latency constraint.
Warning: ReorderBuffer array structure cannot satisfy latency constraint.
Warning: ReorderBuffer array structure cannot satisfy latency constraint.
Warning: ReorderBuffer array structure cannot satisfy latency constraint.
Warning: ReorderBuffer array structure cannot satisfy latency constraint.
Warning: ReorderBuffer array structure cannot satisfy latency constraint.
Warning: ReorderBuffer array structure cannot satisfy latency constraint.
Warning: ReorderBuffer array structure cannot satisfy latency constraint.
Warning: ReorderBuffer array structure cannot satisfy latency constraint.
Warning: ReorderBuffer array structure cannot satisfy latency constraint.

McPAT (version 1.0 of Aug, 2013) results  (current print level is 5)
*****************************************************************************************
  Technology 22 nm
  Using Long Channel Devices When Appropriate
  Interconnect metal projection= aggressive interconnect technology projection
  Core clock Rate(MHz) 4100

*****************************************************************************************
Processor: 
  Area = 938.559 mm^2
  Peak Power = 4239.59 W
  Total Leakage = 24.5968 W
  Peak Dynamic = 4214.99 W
  Subthreshold Leakage = 24.1714 W
  Subthreshold Leakage with power gating = 12.4178 W
  Gate Leakage = 0.425334 W
  Runtime Dynamic = 335.542 W

  Total Cores: 32 cores 
  Device Type= ITRS high performance device type
    Area = 822.12 mm^2
    Peak Dynamic = 4214.8 W
    Subthreshold Leakage = 21.6425 W
    Subthreshold Leakage with power gating = 10.824 W
    Gate Leakage = 0.419875 W
    Runtime Dynamic = 335.38 W

  Total L3s: 
  Device Type= ITRS high performance device type
    Area = 113.584 mm^2
    Peak Dynamic = 0.193767 W
    Subthreshold Leakage = 2.5046 W
    Subthreshold Leakage with power gating = 1.43505 W
    Gate Leakage = 0.00469644 W
    Runtime Dynamic = 0.162288 W

  Total NoCs (Network/Bus): 
  Device Type= ITRS high performance device type
    Area = 2.85438 mm^2
    Peak Dynamic = 0 W
    Subthreshold Leakage = 0.0243787 W
    Subthreshold Leakage with power gating = 0.0109704 W
    Gate Leakage = 0.000762709 W
    Runtime Dynamic = 0 W

*****************************************************************************************
Core:
      Area = 25.6912 mm^2
      Peak Dynamic = 135.705 W
      Subthreshold Leakage = 0.676327 W
      Subthreshold Leakage with power gating = 0.338249 W
      Gate Leakage = 0.0131211 W
      Runtime Dynamic = 43.9376 W

      Instruction Fetch Unit:
        Area = 1.77831 mm^2
        Peak Dynamic = 3.44882 W
        Subthreshold Leakage = 0.0489032 W
        Subthreshold Leakage with power gating = 0.0244982 W
        Gate Leakage = 0.00106307 W
        Runtime Dynamic = 0.401282 W

          Instruction Cache:
            Area = 0.889009 mm^2
            Peak Dynamic = 2.39277 W
            Subthreshold Leakage = 0.0224541 W
            Subthreshold Leakage with power gating = 0.0118459 W
            Gate Leakage = 0.000572546 W
            Runtime Dynamic = 0.198005 W

          Branch Target Buffer:
            Area = 0.186524 mm^2
            Peak Dynamic = 0.059268 W
            Subthreshold Leakage = 0.00465747 W
            Subthreshold Leakage with power gating = 0.00270432 W
            Gate Leakage = 7.13769e-05 W
            Runtime Dynamic = 0.0105571 W

          Branch Predictor:
            Area = 0.036046 mm^2
            Peak Dynamic = 0.02117 W
            Subthreshold Leakage = 0.000991335 W
            Subthreshold Leakage with power gating = 0.000578338 W
            Gate Leakage = 1.31326e-05 W
            Runtime Dynamic = 0.00405142 W

              Global Predictor:
                Area = 0.0122599 mm^2
                Peak Dynamic = 0.00687234 W
                Subthreshold Leakage = 0.000368869 W
                Subthreshold Leakage with power gating = 0.000216136 W
                Gate Leakage = 4.75216e-06 W
                Runtime Dynamic = 0.00129163 W

              Local Predictor:
              L1_Local Predictor:
                Area = 0.00588309 mm^2
                Peak Dynamic = 0.0041416 W
                Subthreshold Leakage = 0.000195204 W
                Subthreshold Leakage with power gating = 0.000113194 W
                Gate Leakage = 2.68765e-06 W
                Runtime Dynamic = 0.000800262 W

              L2_Local Predictor:
                Area = 0.00299577 mm^2
                Peak Dynamic = 0.00205293 W
                Subthreshold Leakage = 0.000107724 W
                Subthreshold Leakage with power gating = 6.1471e-05 W
                Gate Leakage = 1.64109e-06 W
                Runtime Dynamic = 0.000396617 W

              Chooser:
                Area = 0.0122599 mm^2
                Peak Dynamic = 0.00687234 W
                Subthreshold Leakage = 0.000368869 W
                Subthreshold Leakage with power gating = 0.000216136 W
                Gate Leakage = 4.75216e-06 W
                Runtime Dynamic = 0.00129163 W

              RAS:
                Area = 0.00264738 mm^2
                Peak Dynamic = 0.00328372 W
                Subthreshold Leakage = 5.83929e-05 W
                Subthreshold Leakage with power gating = 3.28722e-05 W
                Gate Leakage = 9.40608e-07 W
                Runtime Dynamic = 0.000667906 W

          Instruction Buffer:
            Area = 0.00953762 mm^2
            Peak Dynamic = 0.530088 W
            Subthreshold Leakage = 0.000136711 W
            Subthreshold Leakage with power gating = 7.09986e-05 W
            Gate Leakage = 2.25735e-06 W
            Runtime Dynamic = 0.0948058 W

          Instruction Decoder:
            Area = 0.640954 mm^2
            Peak Dynamic = 0.349878 W
            Subthreshold Leakage = 0.0191833 W
            Subthreshold Leakage with power gating = 0.00863248 W
            Gate Leakage = 0.000321652 W
            Runtime Dynamic = 0.0938632 W

      Renaming Unit:
        Area = 0.398932 mm^2
        Peak Dynamic = 8.69359 W
        Subthreshold Leakage = 0.0109372 W
        Subthreshold Leakage with power gating = 0.00606856 W
        Gate Leakage = 0.000384701 W
        Runtime Dynamic = 2.00562 W

          Int Front End RAT:
            Area = 0.21217 mm^2
            Peak Dynamic = 7.13042 W
            Subthreshold Leakage = 0.00602709 W
            Subthreshold Leakage with power gating = 0.00343544 W
            Gate Leakage = 0.00019896 W
            Runtime Dynamic = 1.85098 W

          FP Front End RAT:
            Area = 0.0680121 mm^2
            Peak Dynamic = 1.35733 W
            Subthreshold Leakage = 0.00307484 W
            Subthreshold Leakage with power gating = 0.00175266 W
            Gate Leakage = 9.92553e-05 W
            Runtime Dynamic = 0.0906013 W

          Free List:
            Area = 0.102513 mm^2
            Peak Dynamic = 0.110214 W
            Subthreshold Leakage = 0.000354903 W
            Subthreshold Leakage with power gating = 0.000214298 W
            Gate Leakage = 4.37705e-06 W
            Runtime Dynamic = 0.0640396 W

      Load Store Unit:
        Area = 3.82362 mm^2
        Peak Dynamic = 2.66494 W
        Subthreshold Leakage = 0.0568103 W
        Subthreshold Leakage with power gating = 0.0282651 W
        Gate Leakage = 0.00100861 W
        Runtime Dynamic = 1.60093 W

          Data Cache:
            Area = 3.1028 mm^2
            Peak Dynamic = 2.51949 W
            Subthreshold Leakage = 0.0540038 W
            Subthreshold Leakage with power gating = 0.0268431 W
            Gate Leakage = 0.000899052 W
            Runtime Dynamic = 1.45698 W

          LoadQ:
            Area = 0.0208402 mm^2
            Peak Dynamic = 0.040633 W
            Subthreshold Leakage = 0.000561618 W
            Subthreshold Leakage with power gating = 0.000320122 W
            Gate Leakage = 1.1987e-05 W
            Runtime Dynamic = 0.040633 W

          StoreQ:
            Area = 0.0248506 mm^2
            Peak Dynamic = 0.0516592 W
            Subthreshold Leakage = 0.000764494 W
            Subthreshold Leakage with power gating = 0.000435762 W
            Gate Leakage = 1.54675e-05 W
            Runtime Dynamic = 0.103318 W

      Memory Management Unit:
        Area = 0.0534534 mm^2
        Peak Dynamic = 0.136726 W
        Subthreshold Leakage = 0.0028353 W
        Subthreshold Leakage with power gating = 0.00143848 W
        Gate Leakage = 0.000108584 W
        Runtime Dynamic = 0.0361894 W

          Itlb:
            Area = 0.0153781 mm^2
            Peak Dynamic = 0.031693 W
            Subthreshold Leakage = 0.000525402 W
            Subthreshold Leakage with power gating = 0.000299479 W
            Gate Leakage = 1.04742e-05 W
            Runtime Dynamic = 0.00542742 W

          Dtlb:
            Area = 0.0218389 mm^2
            Peak Dynamic = 0.0306365 W
            Subthreshold Leakage = 0.000829526 W
            Subthreshold Leakage with power gating = 0.00047283 W
            Gate Leakage = 1.60011e-05 W
            Runtime Dynamic = 0.030762 W

      Execution Unit:
        Area = 12.5101 mm^2
        Peak Dynamic = 120.747 W
        Subthreshold Leakage = 0.263602 W
        Subthreshold Leakage with power gating = 0.120668 W
        Gate Leakage = 0.00812329 W
        Runtime Dynamic = 39.8847 W

          Register Files:
            Area = 0.274572 mm^2
            Peak Dynamic = 0.135129 W
            Subthreshold Leakage = 0.0011996 W
            Subthreshold Leakage with power gating = 0.000558105 W
            Gate Leakage = 2.52418e-05 W
            Runtime Dynamic = 0.0827026 W

              Integer RF:
                Area = 0.175302 mm^2
                Peak Dynamic = 0.0959096 W
                Subthreshold Leakage = 0.000764222 W
                Subthreshold Leakage with power gating = 0.0003514 W
                Gate Leakage = 1.6485e-05 W
                Runtime Dynamic = 0.0733202 W

              Floating Point RF:
                Area = 0.0992699 mm^2
                Peak Dynamic = 0.0392189 W
                Subthreshold Leakage = 0.000435376 W
                Subthreshold Leakage with power gating = 0.000206704 W
                Gate Leakage = 8.75685e-06 W
                Runtime Dynamic = 0.0093824 W

          Instruction Scheduler:
            Area = 10.6135 mm^2
            Peak Dynamic = 119.985 W
            Subthreshold Leakage = 0.192581 W
            Subthreshold Leakage with power gating = 0.0886908 W
            Gate Leakage = 0.00650973 W
            Runtime Dynamic = 38.2604 W

              Instruction Window:
                Area = 0.601548 mm^2
                Peak Dynamic = 1.48955 W
                Subthreshold Leakage = 0.0124658 W
                Subthreshold Leakage with power gating = 0.00710224 W
                Gate Leakage = 0.000274914 W
                Runtime Dynamic = 0.520878 W

              FP Instruction Window:
                Area = 0.084547 mm^2
                Peak Dynamic = 0.391146 W
                Subthreshold Leakage = 0.0011635 W
                Subthreshold Leakage with power gating = 0.000659943 W
                Gate Leakage = 2.63293e-05 W
                Runtime Dynamic = 0.203453 W

              ROB:
                Area = 9.92741 mm^2
                Peak Dynamic = 118.104 W
                Subthreshold Leakage = 0.178952 W
                Subthreshold Leakage with power gating = 0.0809286 W
                Gate Leakage = 0.00620849 W
                Runtime Dynamic = 37.536 W

          Integer ALUs (Count: 9 ):
            Area = 0.34609 mm^2
            Peak Dynamic = 0.189277 W
            Subthreshold Leakage = 0.0261022 W
            Subthreshold Leakage with power gating = 0.011746 W
            Gate Leakage = 0.000575286 W
            Runtime Dynamic = 0.241318 W

          Floating Point Units (FPUs) (Count: 2 ):
            Area = 1.11344 mm^2
            Peak Dynamic = 0.116626 W
            Subthreshold Leakage = 0.020994 W
            Subthreshold Leakage with power gating = 0.0094473 W
            Gate Leakage = 0.000462702 W
            Runtime Dynamic = 0.183411 W

          Complex ALUs (Mul/Div) (Count: 1 ):
            Area = 0.115363 mm^2
            Peak Dynamic = 0.0278037 W
            Subthreshold Leakage = 0.00870074 W
            Subthreshold Leakage with power gating = 0.00391533 W
            Gate Leakage = 0.000191762 W
            Runtime Dynamic = 0.10977 W

          Results Broadcast Bus:
            Area Overhead = 0.030867 mm^2
            Peak Dynamic = 0.277497 W
            Subthreshold Leakage = 0.0125437 W
            Subthreshold Leakage with power gating = 0.00564468 W
            Gate Leakage = 0.000276461 W
            Runtime Dynamic = 1.00715 W

    L2
    Area = 4.97248 mm^2
    Peak Dynamic = 0.0142356 W
    Subthreshold Leakage = 0.211997 W
    Subthreshold Leakage with power gating = 0.120751 W
    Gate Leakage = 0.00064227 W
    Runtime Dynamic = 0.00881216 W

*****************************************************************************************
Core:
      Area = 25.6912 mm^2
      Peak Dynamic = 133.223 W
      Subthreshold Leakage = 0.676327 W
      Subthreshold Leakage with power gating = 0.338249 W
      Gate Leakage = 0.0131211 W
      Runtime Dynamic = 19.3069 W

      Instruction Fetch Unit:
        Area = 1.77831 mm^2
        Peak Dynamic = 2.89844 W
        Subthreshold Leakage = 0.0489032 W
        Subthreshold Leakage with power gating = 0.0244982 W
        Gate Leakage = 0.00106307 W
        Runtime Dynamic = 0.159294 W

          Instruction Cache:
            Area = 0.889009 mm^2
            Peak Dynamic = 1.86355 W
            Subthreshold Leakage = 0.0224541 W
            Subthreshold Leakage with power gating = 0.0118459 W
            Gate Leakage = 0.000572546 W
            Runtime Dynamic = 0.0608793 W

          Branch Target Buffer:
            Area = 0.186524 mm^2
            Peak Dynamic = 0.059268 W
            Subthreshold Leakage = 0.00465747 W
            Subthreshold Leakage with power gating = 0.00270432 W
            Gate Leakage = 7.13769e-05 W
            Runtime Dynamic = 0.00515539 W

          Branch Predictor:
            Area = 0.036046 mm^2
            Peak Dynamic = 0.02117 W
            Subthreshold Leakage = 0.000991335 W
            Subthreshold Leakage with power gating = 0.000578338 W
            Gate Leakage = 1.31326e-05 W
            Runtime Dynamic = 0.00197214 W

              Global Predictor:
                Area = 0.0122599 mm^2
                Peak Dynamic = 0.00687234 W
                Subthreshold Leakage = 0.000368869 W
                Subthreshold Leakage with power gating = 0.000216136 W
                Gate Leakage = 4.75216e-06 W
                Runtime Dynamic = 0.000629613 W

              Local Predictor:
              L1_Local Predictor:
                Area = 0.00588309 mm^2
                Peak Dynamic = 0.0041416 W
                Subthreshold Leakage = 0.000195204 W
                Subthreshold Leakage with power gating = 0.000113194 W
                Gate Leakage = 2.68765e-06 W
                Runtime Dynamic = 0.000389746 W

              L2_Local Predictor:
                Area = 0.00299577 mm^2
                Peak Dynamic = 0.00205293 W
                Subthreshold Leakage = 0.000107724 W
                Subthreshold Leakage with power gating = 6.1471e-05 W
                Gate Leakage = 1.64109e-06 W
                Runtime Dynamic = 0.000193163 W

              Chooser:
                Area = 0.0122599 mm^2
                Peak Dynamic = 0.00687234 W
                Subthreshold Leakage = 0.000368869 W
                Subthreshold Leakage with power gating = 0.000216136 W
                Gate Leakage = 4.75216e-06 W
                Runtime Dynamic = 0.000629613 W

              RAS:
                Area = 0.00264738 mm^2
                Peak Dynamic = 0.00328372 W
                Subthreshold Leakage = 5.83929e-05 W
                Subthreshold Leakage with power gating = 3.28722e-05 W
                Gate Leakage = 9.40608e-07 W
                Runtime Dynamic = 0.000323166 W

          Instruction Buffer:
            Area = 0.00953762 mm^2
            Peak Dynamic = 0.530088 W
            Subthreshold Leakage = 0.000136711 W
            Subthreshold Leakage with power gating = 7.09986e-05 W
            Gate Leakage = 2.25735e-06 W
            Runtime Dynamic = 0.0458718 W

          Instruction Decoder:
            Area = 0.640954 mm^2
            Peak Dynamic = 0.349878 W
            Subthreshold Leakage = 0.0191833 W
            Subthreshold Leakage with power gating = 0.00863248 W
            Gate Leakage = 0.000321652 W
            Runtime Dynamic = 0.0454157 W

      Renaming Unit:
        Area = 0.398932 mm^2
        Peak Dynamic = 8.69359 W
        Subthreshold Leakage = 0.0109372 W
        Subthreshold Leakage with power gating = 0.00606856 W
        Gate Leakage = 0.000384701 W
        Runtime Dynamic = 0.947896 W

          Int Front End RAT:
            Area = 0.21217 mm^2
            Peak Dynamic = 7.13042 W
            Subthreshold Leakage = 0.00602709 W
            Subthreshold Leakage with power gating = 0.00343544 W
            Gate Leakage = 0.00019896 W
            Runtime Dynamic = 0.90404 W

          FP Front End RAT:
            Area = 0.0680121 mm^2
            Peak Dynamic = 1.35733 W
            Subthreshold Leakage = 0.00307484 W
            Subthreshold Leakage with power gating = 0.00175266 W
            Gate Leakage = 9.92553e-05 W
            Runtime Dynamic = 0.0144611 W

          Free List:
            Area = 0.102513 mm^2
            Peak Dynamic = 0.110214 W
            Subthreshold Leakage = 0.000354903 W
            Subthreshold Leakage with power gating = 0.000214298 W
            Gate Leakage = 4.37705e-06 W
            Runtime Dynamic = 0.0293953 W

      Load Store Unit:
        Area = 3.82362 mm^2
        Peak Dynamic = 1.27207 W
        Subthreshold Leakage = 0.0568103 W
        Subthreshold Leakage with power gating = 0.0282651 W
        Gate Leakage = 0.00100861 W
        Runtime Dynamic = 0.616645 W

          Data Cache:
            Area = 3.1028 mm^2
            Peak Dynamic = 1.21547 W
            Subthreshold Leakage = 0.0540038 W
            Subthreshold Leakage with power gating = 0.0268431 W
            Gate Leakage = 0.000899052 W
            Runtime Dynamic = 0.560626 W

          LoadQ:
            Area = 0.0208402 mm^2
            Peak Dynamic = 0.0158126 W
            Subthreshold Leakage = 0.000561618 W
            Subthreshold Leakage with power gating = 0.000320122 W
            Gate Leakage = 1.1987e-05 W
            Runtime Dynamic = 0.0158126 W

          StoreQ:
            Area = 0.0248506 mm^2
            Peak Dynamic = 0.0201036 W
            Subthreshold Leakage = 0.000764494 W
            Subthreshold Leakage with power gating = 0.000435762 W
            Gate Leakage = 1.54675e-05 W
            Runtime Dynamic = 0.0402071 W

      Memory Management Unit:
        Area = 0.0534534 mm^2
        Peak Dynamic = 0.0947671 W
        Subthreshold Leakage = 0.0028353 W
        Subthreshold Leakage with power gating = 0.00143848 W
        Gate Leakage = 0.000108584 W
        Runtime Dynamic = 0.013643 W

          Itlb:
            Area = 0.0153781 mm^2
            Peak Dynamic = 0.0246833 W
            Subthreshold Leakage = 0.000525402 W
            Subthreshold Leakage with power gating = 0.000299479 W
            Gate Leakage = 1.04742e-05 W
            Runtime Dynamic = 0.00167471 W

          Dtlb:
            Area = 0.0218389 mm^2
            Peak Dynamic = 0.0119224 W
            Subthreshold Leakage = 0.000829526 W
            Subthreshold Leakage with power gating = 0.00047283 W
            Gate Leakage = 1.60011e-05 W
            Runtime Dynamic = 0.0119682 W

      Execution Unit:
        Area = 12.5101 mm^2
        Peak Dynamic = 120.259 W
        Subthreshold Leakage = 0.263602 W
        Subthreshold Leakage with power gating = 0.120668 W
        Gate Leakage = 0.00812329 W
        Runtime Dynamic = 17.5681 W

          Register Files:
            Area = 0.274572 mm^2
            Peak Dynamic = 0.0432774 W
            Subthreshold Leakage = 0.0011996 W
            Subthreshold Leakage with power gating = 0.000558105 W
            Gate Leakage = 2.52418e-05 W
            Runtime Dynamic = 0.0400156 W

              Integer RF:
                Area = 0.175302 mm^2
                Peak Dynamic = 0.0370176 W
                Subthreshold Leakage = 0.000764222 W
                Subthreshold Leakage with power gating = 0.0003514 W
                Gate Leakage = 1.6485e-05 W
                Runtime Dynamic = 0.0354759 W

              Floating Point RF:
                Area = 0.0992699 mm^2
                Peak Dynamic = 0.00625975 W
                Subthreshold Leakage = 0.000435376 W
                Subthreshold Leakage with power gating = 0.000206704 W
                Gate Leakage = 8.75685e-06 W
                Runtime Dynamic = 0.00453967 W

          Instruction Scheduler:
            Area = 10.6135 mm^2
            Peak Dynamic = 119.985 W
            Subthreshold Leakage = 0.192581 W
            Subthreshold Leakage with power gating = 0.0886908 W
            Gate Leakage = 0.00650973 W
            Runtime Dynamic = 16.7413 W

              Instruction Window:
                Area = 0.601548 mm^2
                Peak Dynamic = 1.48955 W
                Subthreshold Leakage = 0.0124658 W
                Subthreshold Leakage with power gating = 0.00710224 W
                Gate Leakage = 0.000274914 W
                Runtime Dynamic = 0.252027 W

              FP Instruction Window:
                Area = 0.084547 mm^2
                Peak Dynamic = 0.391146 W
                Subthreshold Leakage = 0.0011635 W
                Subthreshold Leakage with power gating = 0.000659943 W
                Gate Leakage = 2.63293e-05 W
                Runtime Dynamic = 0.0984406 W

              ROB:
                Area = 9.92741 mm^2
                Peak Dynamic = 118.104 W
                Subthreshold Leakage = 0.178952 W
                Subthreshold Leakage with power gating = 0.0809286 W
                Gate Leakage = 0.00620849 W
                Runtime Dynamic = 16.3909 W

          Integer ALUs (Count: 9 ):
            Area = 0.34609 mm^2
            Peak Dynamic = 0.0971324 W
            Subthreshold Leakage = 0.0261022 W
            Subthreshold Leakage with power gating = 0.011746 W
            Gate Leakage = 0.000575286 W
            Runtime Dynamic = 0.133972 W

          Floating Point Units (FPUs) (Count: 2 ):
            Area = 1.11344 mm^2
            Peak Dynamic = 0.0186147 W
            Subthreshold Leakage = 0.020994 W
            Subthreshold Leakage with power gating = 0.0094473 W
            Gate Leakage = 0.000462702 W
            Runtime Dynamic = 0.141925 W

          Complex ALUs (Mul/Div) (Count: 1 ):
            Area = 0.115363 mm^2
            Peak Dynamic = 0.00302227 W
            Subthreshold Leakage = 0.00870074 W
            Subthreshold Leakage with power gating = 0.00391533 W
            Gate Leakage = 0.000191762 W
            Runtime Dynamic = 0.0915821 W

          Results Broadcast Bus:
            Area Overhead = 0.030867 mm^2
            Peak Dynamic = 0.103854 W
            Subthreshold Leakage = 0.0125437 W
            Subthreshold Leakage with power gating = 0.00564468 W
            Gate Leakage = 0.000276461 W
            Runtime Dynamic = 0.419238 W

    L2
    Area = 4.97248 mm^2
    Peak Dynamic = 0.00493006 W
    Subthreshold Leakage = 0.211997 W
    Subthreshold Leakage with power gating = 0.120751 W
    Gate Leakage = 0.00064227 W
    Runtime Dynamic = 0.00133881 W

*****************************************************************************************
Core:
      Area = 25.6912 mm^2
      Peak Dynamic = 133.223 W
      Subthreshold Leakage = 0.676327 W
      Subthreshold Leakage with power gating = 0.338249 W
      Gate Leakage = 0.0131211 W
      Runtime Dynamic = 19.3066 W

      Instruction Fetch Unit:
        Area = 1.77831 mm^2
        Peak Dynamic = 2.89827 W
        Subthreshold Leakage = 0.0489032 W
        Subthreshold Leakage with power gating = 0.0244982 W
        Gate Leakage = 0.00106307 W
        Runtime Dynamic = 0.159295 W

          Instruction Cache:
            Area = 0.889009 mm^2
            Peak Dynamic = 1.86339 W
            Subthreshold Leakage = 0.0224541 W
            Subthreshold Leakage with power gating = 0.0118459 W
            Gate Leakage = 0.000572546 W
            Runtime Dynamic = 0.060894 W

          Branch Target Buffer:
            Area = 0.186524 mm^2
            Peak Dynamic = 0.059268 W
            Subthreshold Leakage = 0.00465747 W
            Subthreshold Leakage with power gating = 0.00270432 W
            Gate Leakage = 7.13769e-05 W
            Runtime Dynamic = 0.00515073 W

          Branch Predictor:
            Area = 0.036046 mm^2
            Peak Dynamic = 0.02117 W
            Subthreshold Leakage = 0.000991335 W
            Subthreshold Leakage with power gating = 0.000578338 W
            Gate Leakage = 1.31326e-05 W
            Runtime Dynamic = 0.00197061 W

              Global Predictor:
                Area = 0.0122599 mm^2
                Peak Dynamic = 0.00687234 W
                Subthreshold Leakage = 0.000368869 W
                Subthreshold Leakage with power gating = 0.000216136 W
                Gate Leakage = 4.75216e-06 W
                Runtime Dynamic = 0.000629041 W

              Local Predictor:
              L1_Local Predictor:
                Area = 0.00588309 mm^2
                Peak Dynamic = 0.0041416 W
                Subthreshold Leakage = 0.000195204 W
                Subthreshold Leakage with power gating = 0.000113194 W
                Gate Leakage = 2.68765e-06 W
                Runtime Dynamic = 0.00038939 W

              L2_Local Predictor:
                Area = 0.00299577 mm^2
                Peak Dynamic = 0.00205293 W
                Subthreshold Leakage = 0.000107724 W
                Subthreshold Leakage with power gating = 6.1471e-05 W
                Gate Leakage = 1.64109e-06 W
                Runtime Dynamic = 0.000192986 W

              Chooser:
                Area = 0.0122599 mm^2
                Peak Dynamic = 0.00687234 W
                Subthreshold Leakage = 0.000368869 W
                Subthreshold Leakage with power gating = 0.000216136 W
                Gate Leakage = 4.75216e-06 W
                Runtime Dynamic = 0.000629041 W

              RAS:
                Area = 0.00264738 mm^2
                Peak Dynamic = 0.00328372 W
                Subthreshold Leakage = 5.83929e-05 W
                Subthreshold Leakage with power gating = 3.28722e-05 W
                Gate Leakage = 9.40608e-07 W
                Runtime Dynamic = 0.000323137 W

          Instruction Buffer:
            Area = 0.00953762 mm^2
            Peak Dynamic = 0.530088 W
            Subthreshold Leakage = 0.000136711 W
            Subthreshold Leakage with power gating = 7.09986e-05 W
            Gate Leakage = 2.25735e-06 W
            Runtime Dynamic = 0.0458677 W

          Instruction Decoder:
            Area = 0.640954 mm^2
            Peak Dynamic = 0.349878 W
            Subthreshold Leakage = 0.0191833 W
            Subthreshold Leakage with power gating = 0.00863248 W
            Gate Leakage = 0.000321652 W
            Runtime Dynamic = 0.0454117 W

      Renaming Unit:
        Area = 0.398932 mm^2
        Peak Dynamic = 8.69359 W
        Subthreshold Leakage = 0.0109372 W
        Subthreshold Leakage with power gating = 0.00606856 W
        Gate Leakage = 0.000384701 W
        Runtime Dynamic = 0.947836 W

          Int Front End RAT:
            Area = 0.21217 mm^2
            Peak Dynamic = 7.13042 W
            Subthreshold Leakage = 0.00602709 W
            Subthreshold Leakage with power gating = 0.00343544 W
            Gate Leakage = 0.00019896 W
            Runtime Dynamic = 0.90397 W

          FP Front End RAT:
            Area = 0.0680121 mm^2
            Peak Dynamic = 1.35733 W
            Subthreshold Leakage = 0.00307484 W
            Subthreshold Leakage with power gating = 0.00175266 W
            Gate Leakage = 9.92553e-05 W
            Runtime Dynamic = 0.0144725 W

          Free List:
            Area = 0.102513 mm^2
            Peak Dynamic = 0.110214 W
            Subthreshold Leakage = 0.000354903 W
            Subthreshold Leakage with power gating = 0.000214298 W
            Gate Leakage = 4.37705e-06 W
            Runtime Dynamic = 0.0293934 W

      Load Store Unit:
        Area = 3.82362 mm^2
        Peak Dynamic = 1.27231 W
        Subthreshold Leakage = 0.0568103 W
        Subthreshold Leakage with power gating = 0.0282651 W
        Gate Leakage = 0.00100861 W
        Runtime Dynamic = 0.616845 W

          Data Cache:
            Area = 3.1028 mm^2
            Peak Dynamic = 1.21569 W
            Subthreshold Leakage = 0.0540038 W
            Subthreshold Leakage with power gating = 0.0268431 W
            Gate Leakage = 0.000899052 W
            Runtime Dynamic = 0.56081 W

          LoadQ:
            Area = 0.0208402 mm^2
            Peak Dynamic = 0.0158169 W
            Subthreshold Leakage = 0.000561618 W
            Subthreshold Leakage with power gating = 0.000320122 W
            Gate Leakage = 1.1987e-05 W
            Runtime Dynamic = 0.0158169 W

          StoreQ:
            Area = 0.0248506 mm^2
            Peak Dynamic = 0.020109 W
            Subthreshold Leakage = 0.000764494 W
            Subthreshold Leakage with power gating = 0.000435762 W
            Gate Leakage = 1.54675e-05 W
            Runtime Dynamic = 0.040218 W

      Memory Management Unit:
        Area = 0.0534534 mm^2
        Peak Dynamic = 0.0947709 W
        Subthreshold Leakage = 0.0028353 W
        Subthreshold Leakage with power gating = 0.00143848 W
        Gate Leakage = 0.000108584 W
        Runtime Dynamic = 0.0136469 W

          Itlb:
            Area = 0.0153781 mm^2
            Peak Dynamic = 0.0246811 W
            Subthreshold Leakage = 0.000525402 W
            Subthreshold Leakage with power gating = 0.000299479 W
            Gate Leakage = 1.04742e-05 W
            Runtime Dynamic = 0.00167511 W

          Dtlb:
            Area = 0.0218389 mm^2
            Peak Dynamic = 0.0119256 W
            Subthreshold Leakage = 0.000829526 W
            Subthreshold Leakage with power gating = 0.00047283 W
            Gate Leakage = 1.60011e-05 W
            Runtime Dynamic = 0.0119718 W

      Execution Unit:
        Area = 12.5101 mm^2
        Peak Dynamic = 120.259 W
        Subthreshold Leakage = 0.263602 W
        Subthreshold Leakage with power gating = 0.120668 W
        Gate Leakage = 0.00812329 W
        Runtime Dynamic = 17.5677 W

          Register Files:
            Area = 0.274572 mm^2
            Peak Dynamic = 0.0432845 W
            Subthreshold Leakage = 0.0011996 W
            Subthreshold Leakage with power gating = 0.000558105 W
            Gate Leakage = 2.52418e-05 W
            Runtime Dynamic = 0.0400121 W

              Integer RF:
                Area = 0.175302 mm^2
                Peak Dynamic = 0.0370198 W
                Subthreshold Leakage = 0.000764222 W
                Subthreshold Leakage with power gating = 0.0003514 W
                Gate Leakage = 1.6485e-05 W
                Runtime Dynamic = 0.0354728 W

              Floating Point RF:
                Area = 0.0992699 mm^2
                Peak Dynamic = 0.00626475 W
                Subthreshold Leakage = 0.000435376 W
                Subthreshold Leakage with power gating = 0.000206704 W
                Gate Leakage = 8.75685e-06 W
                Runtime Dynamic = 0.00453927 W

          Instruction Scheduler:
            Area = 10.6135 mm^2
            Peak Dynamic = 119.985 W
            Subthreshold Leakage = 0.192581 W
            Subthreshold Leakage with power gating = 0.0886908 W
            Gate Leakage = 0.00650973 W
            Runtime Dynamic = 16.7409 W

              Instruction Window:
                Area = 0.601548 mm^2
                Peak Dynamic = 1.48955 W
                Subthreshold Leakage = 0.0124658 W
                Subthreshold Leakage with power gating = 0.00710224 W
                Gate Leakage = 0.000274914 W
                Runtime Dynamic = 0.252004 W

              FP Instruction Window:
                Area = 0.084547 mm^2
                Peak Dynamic = 0.391146 W
                Subthreshold Leakage = 0.0011635 W
                Subthreshold Leakage with power gating = 0.000659943 W
                Gate Leakage = 2.63293e-05 W
                Runtime Dynamic = 0.0984318 W

              ROB:
                Area = 9.92741 mm^2
                Peak Dynamic = 118.104 W
                Subthreshold Leakage = 0.178952 W
                Subthreshold Leakage with power gating = 0.0809286 W
                Gate Leakage = 0.00620849 W
                Runtime Dynamic = 16.3904 W

          Integer ALUs (Count: 9 ):
            Area = 0.34609 mm^2
            Peak Dynamic = 0.0971208 W
            Subthreshold Leakage = 0.0261022 W
            Subthreshold Leakage with power gating = 0.011746 W
            Gate Leakage = 0.000575286 W
            Runtime Dynamic = 0.133977 W

          Floating Point Units (FPUs) (Count: 2 ):
            Area = 1.11344 mm^2
            Peak Dynamic = 0.0186296 W
            Subthreshold Leakage = 0.020994 W
            Subthreshold Leakage with power gating = 0.0094473 W
            Gate Leakage = 0.000462702 W
            Runtime Dynamic = 0.141931 W

          Complex ALUs (Mul/Div) (Count: 1 ):
            Area = 0.115363 mm^2
            Peak Dynamic = 0.00302798 W
            Subthreshold Leakage = 0.00870074 W
            Subthreshold Leakage with power gating = 0.00391533 W
            Gate Leakage = 0.000191762 W
            Runtime Dynamic = 0.0915862 W

          Results Broadcast Bus:
            Area Overhead = 0.030867 mm^2
            Peak Dynamic = 0.103863 W
            Subthreshold Leakage = 0.0125437 W
            Subthreshold Leakage with power gating = 0.00564468 W
            Gate Leakage = 0.000276461 W
            Runtime Dynamic = 0.419279 W

    L2
    Area = 4.97248 mm^2
    Peak Dynamic = 0.00496087 W
    Subthreshold Leakage = 0.211997 W
    Subthreshold Leakage with power gating = 0.120751 W
    Gate Leakage = 0.00064227 W
    Runtime Dynamic = 0.00136871 W

*****************************************************************************************
Core:
      Area = 25.6912 mm^2
      Peak Dynamic = 133.204 W
      Subthreshold Leakage = 0.676327 W
      Subthreshold Leakage with power gating = 0.338249 W
      Gate Leakage = 0.0131211 W
      Runtime Dynamic = 19.1908 W

      Instruction Fetch Unit:
        Area = 1.77831 mm^2
        Peak Dynamic = 2.88459 W
        Subthreshold Leakage = 0.0489032 W
        Subthreshold Leakage with power gating = 0.0244982 W
        Gate Leakage = 0.00106307 W
        Runtime Dynamic = 0.16159 W

          Instruction Cache:
            Area = 0.889009 mm^2
            Peak Dynamic = 1.85023 W
            Subthreshold Leakage = 0.0224541 W
            Subthreshold Leakage with power gating = 0.0118459 W
            Gate Leakage = 0.000572546 W
            Runtime Dynamic = 0.0639948 W

          Branch Target Buffer:
            Area = 0.186524 mm^2
            Peak Dynamic = 0.059268 W
            Subthreshold Leakage = 0.00465747 W
            Subthreshold Leakage with power gating = 0.00270432 W
            Gate Leakage = 7.13769e-05 W
            Runtime Dynamic = 0.00503032 W

          Branch Predictor:
            Area = 0.036046 mm^2
            Peak Dynamic = 0.02117 W
            Subthreshold Leakage = 0.000991335 W
            Subthreshold Leakage with power gating = 0.000578338 W
            Gate Leakage = 1.31326e-05 W
            Runtime Dynamic = 0.00192983 W

              Global Predictor:
                Area = 0.0122599 mm^2
                Peak Dynamic = 0.00687234 W
                Subthreshold Leakage = 0.000368869 W
                Subthreshold Leakage with power gating = 0.000216136 W
                Gate Leakage = 4.75216e-06 W
                Runtime Dynamic = 0.000614342 W

              Local Predictor:
              L1_Local Predictor:
                Area = 0.00588309 mm^2
                Peak Dynamic = 0.0041416 W
                Subthreshold Leakage = 0.000195204 W
                Subthreshold Leakage with power gating = 0.000113194 W
                Gate Leakage = 2.68765e-06 W
                Runtime Dynamic = 0.000380293 W

              L2_Local Predictor:
                Area = 0.00299577 mm^2
                Peak Dynamic = 0.00205293 W
                Subthreshold Leakage = 0.000107724 W
                Subthreshold Leakage with power gating = 6.1471e-05 W
                Gate Leakage = 1.64109e-06 W
                Runtime Dynamic = 0.000188478 W

              Chooser:
                Area = 0.0122599 mm^2
                Peak Dynamic = 0.00687234 W
                Subthreshold Leakage = 0.000368869 W
                Subthreshold Leakage with power gating = 0.000216136 W
                Gate Leakage = 4.75216e-06 W
                Runtime Dynamic = 0.000614342 W

              RAS:
                Area = 0.00264738 mm^2
                Peak Dynamic = 0.00328372 W
                Subthreshold Leakage = 5.83929e-05 W
                Subthreshold Leakage with power gating = 3.28722e-05 W
                Gate Leakage = 9.40608e-07 W
                Runtime Dynamic = 0.000320855 W

          Instruction Buffer:
            Area = 0.00953762 mm^2
            Peak Dynamic = 0.530088 W
            Subthreshold Leakage = 0.000136711 W
            Subthreshold Leakage with power gating = 7.09986e-05 W
            Gate Leakage = 2.25735e-06 W
            Runtime Dynamic = 0.0455438 W

          Instruction Decoder:
            Area = 0.640954 mm^2
            Peak Dynamic = 0.349878 W
            Subthreshold Leakage = 0.0191833 W
            Subthreshold Leakage with power gating = 0.00863248 W
            Gate Leakage = 0.000321652 W
            Runtime Dynamic = 0.045091 W

      Renaming Unit:
        Area = 0.398932 mm^2
        Peak Dynamic = 8.69359 W
        Subthreshold Leakage = 0.0109372 W
        Subthreshold Leakage with power gating = 0.00606856 W
        Gate Leakage = 0.000384701 W
        Runtime Dynamic = 0.941499 W

          Int Front End RAT:
            Area = 0.21217 mm^2
            Peak Dynamic = 7.13042 W
            Subthreshold Leakage = 0.00602709 W
            Subthreshold Leakage with power gating = 0.00343544 W
            Gate Leakage = 0.00019896 W
            Runtime Dynamic = 0.897839 W

          FP Front End RAT:
            Area = 0.0680121 mm^2
            Peak Dynamic = 1.35733 W
            Subthreshold Leakage = 0.00307484 W
            Subthreshold Leakage with power gating = 0.00175266 W
            Gate Leakage = 9.92553e-05 W
            Runtime Dynamic = 0.0144691 W

          Free List:
            Area = 0.102513 mm^2
            Peak Dynamic = 0.110214 W
            Subthreshold Leakage = 0.000354903 W
            Subthreshold Leakage with power gating = 0.000214298 W
            Gate Leakage = 4.37705e-06 W
            Runtime Dynamic = 0.0291912 W

      Load Store Unit:
        Area = 3.82362 mm^2
        Peak Dynamic = 1.26902 W
        Subthreshold Leakage = 0.0568103 W
        Subthreshold Leakage with power gating = 0.0282651 W
        Gate Leakage = 0.00100861 W
        Runtime Dynamic = 0.614683 W

          Data Cache:
            Area = 3.1028 mm^2
            Peak Dynamic = 1.21261 W
            Subthreshold Leakage = 0.0540038 W
            Subthreshold Leakage with power gating = 0.0268431 W
            Gate Leakage = 0.000899052 W
            Runtime Dynamic = 0.558856 W

          LoadQ:
            Area = 0.0208402 mm^2
            Peak Dynamic = 0.0157583 W
            Subthreshold Leakage = 0.000561618 W
            Subthreshold Leakage with power gating = 0.000320122 W
            Gate Leakage = 1.1987e-05 W
            Runtime Dynamic = 0.0157583 W

          StoreQ:
            Area = 0.0248506 mm^2
            Peak Dynamic = 0.0200345 W
            Subthreshold Leakage = 0.000764494 W
            Subthreshold Leakage with power gating = 0.000435762 W
            Gate Leakage = 1.54675e-05 W
            Runtime Dynamic = 0.040069 W

      Memory Management Unit:
        Area = 0.0534534 mm^2
        Peak Dynamic = 0.0945141 W
        Subthreshold Leakage = 0.0028353 W
        Subthreshold Leakage with power gating = 0.00143848 W
        Gate Leakage = 0.000108584 W
        Runtime Dynamic = 0.0136904 W

          Itlb:
            Area = 0.0153781 mm^2
            Peak Dynamic = 0.0245068 W
            Subthreshold Leakage = 0.000525402 W
            Subthreshold Leakage with power gating = 0.000299479 W
            Gate Leakage = 1.04742e-05 W
            Runtime Dynamic = 0.00176052 W

          Dtlb:
            Area = 0.0218389 mm^2
            Peak Dynamic = 0.0118815 W
            Subthreshold Leakage = 0.000829526 W
            Subthreshold Leakage with power gating = 0.00047283 W
            Gate Leakage = 1.60011e-05 W
            Runtime Dynamic = 0.0119299 W

      Execution Unit:
        Area = 12.5101 mm^2
        Peak Dynamic = 120.257 W
        Subthreshold Leakage = 0.263602 W
        Subthreshold Leakage with power gating = 0.120668 W
        Gate Leakage = 0.00812329 W
        Runtime Dynamic = 17.4579 W

          Register Files:
            Area = 0.274572 mm^2
            Peak Dynamic = 0.0430367 W
            Subthreshold Leakage = 0.0011996 W
            Subthreshold Leakage with power gating = 0.000558105 W
            Gate Leakage = 2.52418e-05 W
            Runtime Dynamic = 0.0397295 W

              Integer RF:
                Area = 0.175302 mm^2
                Peak Dynamic = 0.0367735 W
                Subthreshold Leakage = 0.000764222 W
                Subthreshold Leakage with power gating = 0.0003514 W
                Gate Leakage = 1.6485e-05 W
                Runtime Dynamic = 0.0352223 W

              Floating Point RF:
                Area = 0.0992699 mm^2
                Peak Dynamic = 0.00626328 W
                Subthreshold Leakage = 0.000435376 W
                Subthreshold Leakage with power gating = 0.000206704 W
                Gate Leakage = 8.75685e-06 W
                Runtime Dynamic = 0.00450721 W

          Instruction Scheduler:
            Area = 10.6135 mm^2
            Peak Dynamic = 119.985 W
            Subthreshold Leakage = 0.192581 W
            Subthreshold Leakage with power gating = 0.0886908 W
            Gate Leakage = 0.00650973 W
            Runtime Dynamic = 16.6336 W

              Instruction Window:
                Area = 0.601548 mm^2
                Peak Dynamic = 1.48955 W
                Subthreshold Leakage = 0.0124658 W
                Subthreshold Leakage with power gating = 0.00710224 W
                Gate Leakage = 0.000274914 W
                Runtime Dynamic = 0.250225 W

              FP Instruction Window:
                Area = 0.084547 mm^2
                Peak Dynamic = 0.391146 W
                Subthreshold Leakage = 0.0011635 W
                Subthreshold Leakage with power gating = 0.000659943 W
                Gate Leakage = 2.63293e-05 W
                Runtime Dynamic = 0.0977367 W

              ROB:
                Area = 9.92741 mm^2
                Peak Dynamic = 118.104 W
                Subthreshold Leakage = 0.178952 W
                Subthreshold Leakage with power gating = 0.0809286 W
                Gate Leakage = 0.00620849 W
                Runtime Dynamic = 16.2857 W

          Integer ALUs (Count: 9 ):
            Area = 0.34609 mm^2
            Peak Dynamic = 0.0964169 W
            Subthreshold Leakage = 0.0261022 W
            Subthreshold Leakage with power gating = 0.011746 W
            Gate Leakage = 0.000575286 W
            Runtime Dynamic = 0.133572 W

          Floating Point Units (FPUs) (Count: 2 ):
            Area = 1.11344 mm^2
            Peak Dynamic = 0.0186252 W
            Subthreshold Leakage = 0.020994 W
            Subthreshold Leakage with power gating = 0.0094473 W
            Gate Leakage = 0.000462702 W
            Runtime Dynamic = 0.14193 W

          Complex ALUs (Mul/Div) (Count: 1 ):
            Area = 0.115363 mm^2
            Peak Dynamic = 0.0030263 W
            Subthreshold Leakage = 0.00870074 W
            Subthreshold Leakage with power gating = 0.00391533 W
            Gate Leakage = 0.000191762 W
            Runtime Dynamic = 0.091585 W

          Results Broadcast Bus:
            Area Overhead = 0.030867 mm^2
            Peak Dynamic = 0.103179 W
            Subthreshold Leakage = 0.0125437 W
            Subthreshold Leakage with power gating = 0.00564468 W
            Gate Leakage = 0.000276461 W
            Runtime Dynamic = 0.417449 W

    L2
    Area = 4.97248 mm^2
    Peak Dynamic = 0.00520738 W
    Subthreshold Leakage = 0.211997 W
    Subthreshold Leakage with power gating = 0.120751 W
    Gate Leakage = 0.00064227 W
    Runtime Dynamic = 0.00147042 W

*****************************************************************************************
Core:
      Area = 25.6912 mm^2
      Peak Dynamic = 133.223 W
      Subthreshold Leakage = 0.676327 W
      Subthreshold Leakage with power gating = 0.338249 W
      Gate Leakage = 0.0131211 W
      Runtime Dynamic = 19.3103 W

      Instruction Fetch Unit:
        Area = 1.77831 mm^2
        Peak Dynamic = 2.89878 W
        Subthreshold Leakage = 0.0489032 W
        Subthreshold Leakage with power gating = 0.0244982 W
        Gate Leakage = 0.00106307 W
        Runtime Dynamic = 0.159092 W

          Instruction Cache:
            Area = 0.889009 mm^2
            Peak Dynamic = 1.86388 W
            Subthreshold Leakage = 0.0224541 W
            Subthreshold Leakage with power gating = 0.0118459 W
            Gate Leakage = 0.000572546 W
            Runtime Dynamic = 0.0606244 W

          Branch Target Buffer:
            Area = 0.186524 mm^2
            Peak Dynamic = 0.059268 W
            Subthreshold Leakage = 0.00465747 W
            Subthreshold Leakage with power gating = 0.00270432 W
            Gate Leakage = 7.13769e-05 W
            Runtime Dynamic = 0.00518337 W

          Branch Predictor:
            Area = 0.036046 mm^2
            Peak Dynamic = 0.02117 W
            Subthreshold Leakage = 0.000991335 W
            Subthreshold Leakage with power gating = 0.000578338 W
            Gate Leakage = 1.31326e-05 W
            Runtime Dynamic = 0.00198112 W

              Global Predictor:
                Area = 0.0122599 mm^2
                Peak Dynamic = 0.00687234 W
                Subthreshold Leakage = 0.000368869 W
                Subthreshold Leakage with power gating = 0.000216136 W
                Gate Leakage = 4.75216e-06 W
                Runtime Dynamic = 0.000633024 W

              Local Predictor:
              L1_Local Predictor:
                Area = 0.00588309 mm^2
                Peak Dynamic = 0.0041416 W
                Subthreshold Leakage = 0.000195204 W
                Subthreshold Leakage with power gating = 0.000113194 W
                Gate Leakage = 2.68765e-06 W
                Runtime Dynamic = 0.000391855 W

              L2_Local Predictor:
                Area = 0.00299577 mm^2
                Peak Dynamic = 0.00205293 W
                Subthreshold Leakage = 0.000107724 W
                Subthreshold Leakage with power gating = 6.1471e-05 W
                Gate Leakage = 1.64109e-06 W
                Runtime Dynamic = 0.000194208 W

              Chooser:
                Area = 0.0122599 mm^2
                Peak Dynamic = 0.00687234 W
                Subthreshold Leakage = 0.000368869 W
                Subthreshold Leakage with power gating = 0.000216136 W
                Gate Leakage = 4.75216e-06 W
                Runtime Dynamic = 0.000633024 W

              RAS:
                Area = 0.00264738 mm^2
                Peak Dynamic = 0.00328372 W
                Subthreshold Leakage = 5.83929e-05 W
                Subthreshold Leakage with power gating = 3.28722e-05 W
                Gate Leakage = 9.40608e-07 W
                Runtime Dynamic = 0.000323221 W

          Instruction Buffer:
            Area = 0.00953762 mm^2
            Peak Dynamic = 0.530088 W
            Subthreshold Leakage = 0.000136711 W
            Subthreshold Leakage with power gating = 7.09986e-05 W
            Gate Leakage = 2.25735e-06 W
            Runtime Dynamic = 0.0458797 W

          Instruction Decoder:
            Area = 0.640954 mm^2
            Peak Dynamic = 0.349878 W
            Subthreshold Leakage = 0.0191833 W
            Subthreshold Leakage with power gating = 0.00863248 W
            Gate Leakage = 0.000321652 W
            Runtime Dynamic = 0.0454235 W

      Renaming Unit:
        Area = 0.398932 mm^2
        Peak Dynamic = 8.69359 W
        Subthreshold Leakage = 0.0109372 W
        Subthreshold Leakage with power gating = 0.00606856 W
        Gate Leakage = 0.000384701 W
        Runtime Dynamic = 0.947935 W

          Int Front End RAT:
            Area = 0.21217 mm^2
            Peak Dynamic = 7.13042 W
            Subthreshold Leakage = 0.00602709 W
            Subthreshold Leakage with power gating = 0.00343544 W
            Gate Leakage = 0.00019896 W
            Runtime Dynamic = 0.904117 W

          FP Front End RAT:
            Area = 0.0680121 mm^2
            Peak Dynamic = 1.35733 W
            Subthreshold Leakage = 0.00307484 W
            Subthreshold Leakage with power gating = 0.00175266 W
            Gate Leakage = 9.92553e-05 W
            Runtime Dynamic = 0.0144198 W

          Free List:
            Area = 0.102513 mm^2
            Peak Dynamic = 0.110214 W
            Subthreshold Leakage = 0.000354903 W
            Subthreshold Leakage with power gating = 0.000214298 W
            Gate Leakage = 4.37705e-06 W
            Runtime Dynamic = 0.029398 W

      Load Store Unit:
        Area = 3.82362 mm^2
        Peak Dynamic = 1.27252 W
        Subthreshold Leakage = 0.0568103 W
        Subthreshold Leakage with power gating = 0.0282651 W
        Gate Leakage = 0.00100861 W
        Runtime Dynamic = 0.616896 W

          Data Cache:
            Area = 3.1028 mm^2
            Peak Dynamic = 1.21589 W
            Subthreshold Leakage = 0.0540038 W
            Subthreshold Leakage with power gating = 0.0268431 W
            Gate Leakage = 0.000899052 W
            Runtime Dynamic = 0.560848 W

          LoadQ:
            Area = 0.0208402 mm^2
            Peak Dynamic = 0.0158207 W
            Subthreshold Leakage = 0.000561618 W
            Subthreshold Leakage with power gating = 0.000320122 W
            Gate Leakage = 1.1987e-05 W
            Runtime Dynamic = 0.0158207 W

          StoreQ:
            Area = 0.0248506 mm^2
            Peak Dynamic = 0.0201138 W
            Subthreshold Leakage = 0.000764494 W
            Subthreshold Leakage with power gating = 0.000435762 W
            Gate Leakage = 1.54675e-05 W
            Runtime Dynamic = 0.0402275 W

      Memory Management Unit:
        Area = 0.0534534 mm^2
        Peak Dynamic = 0.0947827 W
        Subthreshold Leakage = 0.0028353 W
        Subthreshold Leakage with power gating = 0.00143848 W
        Gate Leakage = 0.000108584 W
        Runtime Dynamic = 0.0136412 W

          Itlb:
            Area = 0.0153781 mm^2
            Peak Dynamic = 0.0246876 W
            Subthreshold Leakage = 0.000525402 W
            Subthreshold Leakage with power gating = 0.000299479 W
            Gate Leakage = 1.04742e-05 W
            Runtime Dynamic = 0.00166782 W

          Dtlb:
            Area = 0.0218389 mm^2
            Peak Dynamic = 0.0119285 W
            Subthreshold Leakage = 0.000829526 W
            Subthreshold Leakage with power gating = 0.00047283 W
            Gate Leakage = 1.60011e-05 W
            Runtime Dynamic = 0.0119734 W

      Execution Unit:
        Area = 12.5101 mm^2
        Peak Dynamic = 120.259 W
        Subthreshold Leakage = 0.263602 W
        Subthreshold Leakage with power gating = 0.120668 W
        Gate Leakage = 0.00812329 W
        Runtime Dynamic = 17.5715 W

          Register Files:
            Area = 0.274572 mm^2
            Peak Dynamic = 0.0432456 W
            Subthreshold Leakage = 0.0011996 W
            Subthreshold Leakage with power gating = 0.000558105 W
            Gate Leakage = 2.52418e-05 W
            Runtime Dynamic = 0.0400225 W

              Integer RF:
                Area = 0.175302 mm^2
                Peak Dynamic = 0.0370038 W
                Subthreshold Leakage = 0.000764222 W
                Subthreshold Leakage with power gating = 0.0003514 W
                Gate Leakage = 1.6485e-05 W
                Runtime Dynamic = 0.0354821 W

              Floating Point RF:
                Area = 0.0992699 mm^2
                Peak Dynamic = 0.00624183 W
                Subthreshold Leakage = 0.000435376 W
                Subthreshold Leakage with power gating = 0.000206704 W
                Gate Leakage = 8.75685e-06 W
                Runtime Dynamic = 0.00454045 W

          Instruction Scheduler:
            Area = 10.6135 mm^2
            Peak Dynamic = 119.985 W
            Subthreshold Leakage = 0.192581 W
            Subthreshold Leakage with power gating = 0.0886908 W
            Gate Leakage = 0.00650973 W
            Runtime Dynamic = 16.745 W

              Instruction Window:
                Area = 0.601548 mm^2
                Peak Dynamic = 1.48955 W
                Subthreshold Leakage = 0.0124658 W
                Subthreshold Leakage with power gating = 0.00710224 W
                Gate Leakage = 0.000274914 W
                Runtime Dynamic = 0.25207 W

              FP Instruction Window:
                Area = 0.084547 mm^2
                Peak Dynamic = 0.391146 W
                Subthreshold Leakage = 0.0011635 W
                Subthreshold Leakage with power gating = 0.000659943 W
                Gate Leakage = 2.63293e-05 W
                Runtime Dynamic = 0.0984575 W

              ROB:
                Area = 9.92741 mm^2
                Peak Dynamic = 118.104 W
                Subthreshold Leakage = 0.178952 W
                Subthreshold Leakage with power gating = 0.0809286 W
                Gate Leakage = 0.00620849 W
                Runtime Dynamic = 16.3945 W

          Integer ALUs (Count: 9 ):
            Area = 0.34609 mm^2
            Peak Dynamic = 0.0971566 W
            Subthreshold Leakage = 0.0261022 W
            Subthreshold Leakage with power gating = 0.011746 W
            Gate Leakage = 0.000575286 W
            Runtime Dynamic = 0.133944 W

          Floating Point Units (FPUs) (Count: 2 ):
            Area = 1.11344 mm^2
            Peak Dynamic = 0.0185614 W
            Subthreshold Leakage = 0.020994 W
            Subthreshold Leakage with power gating = 0.0094473 W
            Gate Leakage = 0.000462702 W
            Runtime Dynamic = 0.141903 W

          Complex ALUs (Mul/Div) (Count: 1 ):
            Area = 0.115363 mm^2
            Peak Dynamic = 0.00300178 W
            Subthreshold Leakage = 0.00870074 W
            Subthreshold Leakage with power gating = 0.00391533 W
            Gate Leakage = 0.000191762 W
            Runtime Dynamic = 0.0915671 W

          Results Broadcast Bus:
            Area Overhead = 0.030867 mm^2
            Peak Dynamic = 0.103807 W
            Subthreshold Leakage = 0.0125437 W
            Subthreshold Leakage with power gating = 0.00564468 W
            Gate Leakage = 0.000276461 W
            Runtime Dynamic = 0.419043 W

    L2
    Area = 4.97248 mm^2
    Peak Dynamic = 0.00483051 W
    Subthreshold Leakage = 0.211997 W
    Subthreshold Leakage with power gating = 0.120751 W
    Gate Leakage = 0.00064227 W
    Runtime Dynamic = 0.00130462 W

*****************************************************************************************
Core:
      Area = 25.6912 mm^2
      Peak Dynamic = 133.224 W
      Subthreshold Leakage = 0.676327 W
      Subthreshold Leakage with power gating = 0.338249 W
      Gate Leakage = 0.0131211 W
      Runtime Dynamic = 19.3143 W

      Instruction Fetch Unit:
        Area = 1.77831 mm^2
        Peak Dynamic = 2.89915 W
        Subthreshold Leakage = 0.0489032 W
        Subthreshold Leakage with power gating = 0.0244982 W
        Gate Leakage = 0.00106307 W
        Runtime Dynamic = 0.159126 W

          Instruction Cache:
            Area = 0.889009 mm^2
            Peak Dynamic = 1.86424 W
            Subthreshold Leakage = 0.0224541 W
            Subthreshold Leakage with power gating = 0.0118459 W
            Gate Leakage = 0.000572546 W
            Runtime Dynamic = 0.0606378 W

          Branch Target Buffer:
            Area = 0.186524 mm^2
            Peak Dynamic = 0.059268 W
            Subthreshold Leakage = 0.00465747 W
            Subthreshold Leakage with power gating = 0.00270432 W
            Gate Leakage = 7.13769e-05 W
            Runtime Dynamic = 0.0051853 W

          Branch Predictor:
            Area = 0.036046 mm^2
            Peak Dynamic = 0.02117 W
            Subthreshold Leakage = 0.000991335 W
            Subthreshold Leakage with power gating = 0.000578338 W
            Gate Leakage = 1.31326e-05 W
            Runtime Dynamic = 0.0019818 W

              Global Predictor:
                Area = 0.0122599 mm^2
                Peak Dynamic = 0.00687234 W
                Subthreshold Leakage = 0.000368869 W
                Subthreshold Leakage with power gating = 0.000216136 W
                Gate Leakage = 4.75216e-06 W
                Runtime Dynamic = 0.000633259 W

              Local Predictor:
              L1_Local Predictor:
                Area = 0.00588309 mm^2
                Peak Dynamic = 0.0041416 W
                Subthreshold Leakage = 0.000195204 W
                Subthreshold Leakage with power gating = 0.000113194 W
                Gate Leakage = 2.68765e-06 W
                Runtime Dynamic = 0.000392 W

              L2_Local Predictor:
                Area = 0.00299577 mm^2
                Peak Dynamic = 0.00205293 W
                Subthreshold Leakage = 0.000107724 W
                Subthreshold Leakage with power gating = 6.1471e-05 W
                Gate Leakage = 1.64109e-06 W
                Runtime Dynamic = 0.00019428 W

              Chooser:
                Area = 0.0122599 mm^2
                Peak Dynamic = 0.00687234 W
                Subthreshold Leakage = 0.000368869 W
                Subthreshold Leakage with power gating = 0.000216136 W
                Gate Leakage = 4.75216e-06 W
                Runtime Dynamic = 0.000633259 W

              RAS:
                Area = 0.00264738 mm^2
                Peak Dynamic = 0.00328372 W
                Subthreshold Leakage = 5.83929e-05 W
                Subthreshold Leakage with power gating = 3.28722e-05 W
                Gate Leakage = 9.40608e-07 W
                Runtime Dynamic = 0.000323284 W

          Instruction Buffer:
            Area = 0.00953762 mm^2
            Peak Dynamic = 0.530088 W
            Subthreshold Leakage = 0.000136711 W
            Subthreshold Leakage with power gating = 7.09986e-05 W
            Gate Leakage = 2.25735e-06 W
            Runtime Dynamic = 0.0458885 W

          Instruction Decoder:
            Area = 0.640954 mm^2
            Peak Dynamic = 0.349878 W
            Subthreshold Leakage = 0.0191833 W
            Subthreshold Leakage with power gating = 0.00863248 W
            Gate Leakage = 0.000321652 W
            Runtime Dynamic = 0.0454323 W

      Renaming Unit:
        Area = 0.398932 mm^2
        Peak Dynamic = 8.69359 W
        Subthreshold Leakage = 0.0109372 W
        Subthreshold Leakage with power gating = 0.00606856 W
        Gate Leakage = 0.000384701 W
        Runtime Dynamic = 0.948113 W

          Int Front End RAT:
            Area = 0.21217 mm^2
            Peak Dynamic = 7.13042 W
            Subthreshold Leakage = 0.00602709 W
            Subthreshold Leakage with power gating = 0.00343544 W
            Gate Leakage = 0.00019896 W
            Runtime Dynamic = 0.90429 W

          FP Front End RAT:
            Area = 0.0680121 mm^2
            Peak Dynamic = 1.35733 W
            Subthreshold Leakage = 0.00307484 W
            Subthreshold Leakage with power gating = 0.00175266 W
            Gate Leakage = 9.92553e-05 W
            Runtime Dynamic = 0.01442 W

          Free List:
            Area = 0.102513 mm^2
            Peak Dynamic = 0.110214 W
            Subthreshold Leakage = 0.000354903 W
            Subthreshold Leakage with power gating = 0.000214298 W
            Gate Leakage = 4.37705e-06 W
            Runtime Dynamic = 0.0294036 W

      Load Store Unit:
        Area = 3.82362 mm^2
        Peak Dynamic = 1.27273 W
        Subthreshold Leakage = 0.0568103 W
        Subthreshold Leakage with power gating = 0.0282651 W
        Gate Leakage = 0.00100861 W
        Runtime Dynamic = 0.617042 W

          Data Cache:
            Area = 3.1028 mm^2
            Peak Dynamic = 1.21609 W
            Subthreshold Leakage = 0.0540038 W
            Subthreshold Leakage with power gating = 0.0268431 W
            Gate Leakage = 0.000899052 W
            Runtime Dynamic = 0.560981 W

          LoadQ:
            Area = 0.0208402 mm^2
            Peak Dynamic = 0.0158244 W
            Subthreshold Leakage = 0.000561618 W
            Subthreshold Leakage with power gating = 0.000320122 W
            Gate Leakage = 1.1987e-05 W
            Runtime Dynamic = 0.0158244 W

          StoreQ:
            Area = 0.0248506 mm^2
            Peak Dynamic = 0.0201185 W
            Subthreshold Leakage = 0.000764494 W
            Subthreshold Leakage with power gating = 0.000435762 W
            Gate Leakage = 1.54675e-05 W
            Runtime Dynamic = 0.0402372 W

      Memory Management Unit:
        Area = 0.0534534 mm^2
        Peak Dynamic = 0.0947927 W
        Subthreshold Leakage = 0.0028353 W
        Subthreshold Leakage with power gating = 0.00143848 W
        Gate Leakage = 0.000108584 W
        Runtime Dynamic = 0.0136439 W

          Itlb:
            Area = 0.0153781 mm^2
            Peak Dynamic = 0.0246923 W
            Subthreshold Leakage = 0.000525402 W
            Subthreshold Leakage with power gating = 0.000299479 W
            Gate Leakage = 1.04742e-05 W
            Runtime Dynamic = 0.00166819 W

          Dtlb:
            Area = 0.0218389 mm^2
            Peak Dynamic = 0.0119313 W
            Subthreshold Leakage = 0.000829526 W
            Subthreshold Leakage with power gating = 0.00047283 W
            Gate Leakage = 1.60011e-05 W
            Runtime Dynamic = 0.0119757 W

      Execution Unit:
        Area = 12.5101 mm^2
        Peak Dynamic = 120.259 W
        Subthreshold Leakage = 0.263602 W
        Subthreshold Leakage with power gating = 0.120668 W
        Gate Leakage = 0.00812329 W
        Runtime Dynamic = 17.575 W

          Register Files:
            Area = 0.274572 mm^2
            Peak Dynamic = 0.0432527 W
            Subthreshold Leakage = 0.0011996 W
            Subthreshold Leakage with power gating = 0.000558105 W
            Gate Leakage = 2.52418e-05 W
            Runtime Dynamic = 0.0400302 W

              Integer RF:
                Area = 0.175302 mm^2
                Peak Dynamic = 0.0370106 W
                Subthreshold Leakage = 0.000764222 W
                Subthreshold Leakage with power gating = 0.0003514 W
                Gate Leakage = 1.6485e-05 W
                Runtime Dynamic = 0.0354889 W

              Floating Point RF:
                Area = 0.0992699 mm^2
                Peak Dynamic = 0.00624213 W
                Subthreshold Leakage = 0.000435376 W
                Subthreshold Leakage with power gating = 0.000206704 W
                Gate Leakage = 8.75685e-06 W
                Runtime Dynamic = 0.00454133 W

          Instruction Scheduler:
            Area = 10.6135 mm^2
            Peak Dynamic = 119.985 W
            Subthreshold Leakage = 0.192581 W
            Subthreshold Leakage with power gating = 0.0886908 W
            Gate Leakage = 0.00650973 W
            Runtime Dynamic = 16.7485 W

              Instruction Window:
                Area = 0.601548 mm^2
                Peak Dynamic = 1.48955 W
                Subthreshold Leakage = 0.0124658 W
                Subthreshold Leakage with power gating = 0.00710224 W
                Gate Leakage = 0.000274914 W
                Runtime Dynamic = 0.252119 W

              FP Instruction Window:
                Area = 0.084547 mm^2
                Peak Dynamic = 0.391146 W
                Subthreshold Leakage = 0.0011635 W
                Subthreshold Leakage with power gating = 0.000659943 W
                Gate Leakage = 2.63293e-05 W
                Runtime Dynamic = 0.0984766 W

              ROB:
                Area = 9.92741 mm^2
                Peak Dynamic = 118.104 W
                Subthreshold Leakage = 0.178952 W
                Subthreshold Leakage with power gating = 0.0809286 W
                Gate Leakage = 0.00620849 W
                Runtime Dynamic = 16.3979 W

          Integer ALUs (Count: 9 ):
            Area = 0.34609 mm^2
            Peak Dynamic = 0.0971762 W
            Subthreshold Leakage = 0.0261022 W
            Subthreshold Leakage with power gating = 0.011746 W
            Gate Leakage = 0.000575286 W
            Runtime Dynamic = 0.133961 W

          Floating Point Units (FPUs) (Count: 2 ):
            Area = 1.11344 mm^2
            Peak Dynamic = 0.0185623 W
            Subthreshold Leakage = 0.020994 W
            Subthreshold Leakage with power gating = 0.0094473 W
            Gate Leakage = 0.000462702 W
            Runtime Dynamic = 0.141903 W

          Complex ALUs (Mul/Div) (Count: 1 ):
            Area = 0.115363 mm^2
            Peak Dynamic = 0.00300178 W
            Subthreshold Leakage = 0.00870074 W
            Subthreshold Leakage with power gating = 0.00391533 W
            Gate Leakage = 0.000191762 W
            Runtime Dynamic = 0.0915671 W

          Results Broadcast Bus:
            Area Overhead = 0.030867 mm^2
            Peak Dynamic = 0.103826 W
            Subthreshold Leakage = 0.0125437 W
            Subthreshold Leakage with power gating = 0.00564468 W
            Gate Leakage = 0.000276461 W
            Runtime Dynamic = 0.419121 W

    L2
    Area = 4.97248 mm^2
    Peak Dynamic = 0.004776 W
    Subthreshold Leakage = 0.211997 W
    Subthreshold Leakage with power gating = 0.120751 W
    Gate Leakage = 0.00064227 W
    Runtime Dynamic = 0.00129745 W

*****************************************************************************************
Core:
      Area = 25.6912 mm^2
      Peak Dynamic = 133.216 W
      Subthreshold Leakage = 0.676327 W
      Subthreshold Leakage with power gating = 0.338249 W
      Gate Leakage = 0.0131211 W
      Runtime Dynamic = 19.2661 W

      Instruction Fetch Unit:
        Area = 1.77831 mm^2
        Peak Dynamic = 2.89375 W
        Subthreshold Leakage = 0.0489032 W
        Subthreshold Leakage with power gating = 0.0244982 W
        Gate Leakage = 0.00106307 W
        Runtime Dynamic = 0.158835 W

          Instruction Cache:
            Area = 0.889009 mm^2
            Peak Dynamic = 1.85904 W
            Subthreshold Leakage = 0.0224541 W
            Subthreshold Leakage with power gating = 0.0118459 W
            Gate Leakage = 0.000572546 W
            Runtime Dynamic = 0.0606515 W

          Branch Target Buffer:
            Area = 0.186524 mm^2
            Peak Dynamic = 0.059268 W
            Subthreshold Leakage = 0.00465747 W
            Subthreshold Leakage with power gating = 0.00270432 W
            Gate Leakage = 7.13769e-05 W
            Runtime Dynamic = 0.00514829 W

          Branch Predictor:
            Area = 0.036046 mm^2
            Peak Dynamic = 0.02117 W
            Subthreshold Leakage = 0.000991335 W
            Subthreshold Leakage with power gating = 0.000578338 W
            Gate Leakage = 1.31326e-05 W
            Runtime Dynamic = 0.00196908 W

              Global Predictor:
                Area = 0.0122599 mm^2
                Peak Dynamic = 0.00687234 W
                Subthreshold Leakage = 0.000368869 W
                Subthreshold Leakage with power gating = 0.000216136 W
                Gate Leakage = 4.75216e-06 W
                Runtime Dynamic = 0.000628746 W

              Local Predictor:
              L1_Local Predictor:
                Area = 0.00588309 mm^2
                Peak Dynamic = 0.0041416 W
                Subthreshold Leakage = 0.000195204 W
                Subthreshold Leakage with power gating = 0.000113194 W
                Gate Leakage = 2.68765e-06 W
                Runtime Dynamic = 0.000389209 W

              L2_Local Predictor:
                Area = 0.00299577 mm^2
                Peak Dynamic = 0.00205293 W
                Subthreshold Leakage = 0.000107724 W
                Subthreshold Leakage with power gating = 6.1471e-05 W
                Gate Leakage = 1.64109e-06 W
                Runtime Dynamic = 0.000192896 W

              Chooser:
                Area = 0.0122599 mm^2
                Peak Dynamic = 0.00687234 W
                Subthreshold Leakage = 0.000368869 W
                Subthreshold Leakage with power gating = 0.000216136 W
                Gate Leakage = 4.75216e-06 W
                Runtime Dynamic = 0.000628746 W

              RAS:
                Area = 0.00264738 mm^2
                Peak Dynamic = 0.00328372 W
                Subthreshold Leakage = 5.83929e-05 W
                Subthreshold Leakage with power gating = 3.28722e-05 W
                Gate Leakage = 9.40608e-07 W
                Runtime Dynamic = 0.000322383 W

          Instruction Buffer:
            Area = 0.00953762 mm^2
            Peak Dynamic = 0.530088 W
            Subthreshold Leakage = 0.000136711 W
            Subthreshold Leakage with power gating = 7.09986e-05 W
            Gate Leakage = 2.25735e-06 W
            Runtime Dynamic = 0.0457606 W

          Instruction Decoder:
            Area = 0.640954 mm^2
            Peak Dynamic = 0.349878 W
            Subthreshold Leakage = 0.0191833 W
            Subthreshold Leakage with power gating = 0.00863248 W
            Gate Leakage = 0.000321652 W
            Runtime Dynamic = 0.0453057 W

      Renaming Unit:
        Area = 0.398932 mm^2
        Peak Dynamic = 8.69359 W
        Subthreshold Leakage = 0.0109372 W
        Subthreshold Leakage with power gating = 0.00606856 W
        Gate Leakage = 0.000384701 W
        Runtime Dynamic = 0.945576 W

          Int Front End RAT:
            Area = 0.21217 mm^2
            Peak Dynamic = 7.13042 W
            Subthreshold Leakage = 0.00602709 W
            Subthreshold Leakage with power gating = 0.00343544 W
            Gate Leakage = 0.00019896 W
            Runtime Dynamic = 0.901833 W

          FP Front End RAT:
            Area = 0.0680121 mm^2
            Peak Dynamic = 1.35733 W
            Subthreshold Leakage = 0.00307484 W
            Subthreshold Leakage with power gating = 0.00175266 W
            Gate Leakage = 9.92553e-05 W
            Runtime Dynamic = 0.0144186 W

          Free List:
            Area = 0.102513 mm^2
            Peak Dynamic = 0.110214 W
            Subthreshold Leakage = 0.000354903 W
            Subthreshold Leakage with power gating = 0.000214298 W
            Gate Leakage = 4.37705e-06 W
            Runtime Dynamic = 0.0293237 W

      Load Store Unit:
        Area = 3.82362 mm^2
        Peak Dynamic = 1.27156 W
        Subthreshold Leakage = 0.0568103 W
        Subthreshold Leakage with power gating = 0.0282651 W
        Gate Leakage = 0.00100861 W
        Runtime Dynamic = 0.616232 W

          Data Cache:
            Area = 3.1028 mm^2
            Peak Dynamic = 1.21499 W
            Subthreshold Leakage = 0.0540038 W
            Subthreshold Leakage with power gating = 0.0268431 W
            Gate Leakage = 0.000899052 W
            Runtime Dynamic = 0.560244 W

          LoadQ:
            Area = 0.0208402 mm^2
            Peak Dynamic = 0.0158036 W
            Subthreshold Leakage = 0.000561618 W
            Subthreshold Leakage with power gating = 0.000320122 W
            Gate Leakage = 1.1987e-05 W
            Runtime Dynamic = 0.0158035 W

          StoreQ:
            Area = 0.0248506 mm^2
            Peak Dynamic = 0.020092 W
            Subthreshold Leakage = 0.000764494 W
            Subthreshold Leakage with power gating = 0.000435762 W
            Gate Leakage = 1.54675e-05 W
            Runtime Dynamic = 0.040184 W

      Memory Management Unit:
        Area = 0.0534534 mm^2
        Peak Dynamic = 0.0946946 W
        Subthreshold Leakage = 0.0028353 W
        Subthreshold Leakage with power gating = 0.00143848 W
        Gate Leakage = 0.000108584 W
        Runtime Dynamic = 0.0136291 W

          Itlb:
            Area = 0.0153781 mm^2
            Peak Dynamic = 0.0246235 W
            Subthreshold Leakage = 0.000525402 W
            Subthreshold Leakage with power gating = 0.000299479 W
            Gate Leakage = 1.04742e-05 W
            Runtime Dynamic = 0.00166856 W

          Dtlb:
            Area = 0.0218389 mm^2
            Peak Dynamic = 0.0119156 W
            Subthreshold Leakage = 0.000829526 W
            Subthreshold Leakage with power gating = 0.00047283 W
            Gate Leakage = 1.60011e-05 W
            Runtime Dynamic = 0.0119606 W

      Execution Unit:
        Area = 12.5101 mm^2
        Peak Dynamic = 120.258 W
        Subthreshold Leakage = 0.263602 W
        Subthreshold Leakage with power gating = 0.120668 W
        Gate Leakage = 0.00812329 W
        Runtime Dynamic = 17.5306 W

          Register Files:
            Area = 0.274572 mm^2
            Peak Dynamic = 0.0431548 W
            Subthreshold Leakage = 0.0011996 W
            Subthreshold Leakage with power gating = 0.000558105 W
            Gate Leakage = 2.52418e-05 W
            Runtime Dynamic = 0.0399187 W

              Integer RF:
                Area = 0.175302 mm^2
                Peak Dynamic = 0.0369133 W
                Subthreshold Leakage = 0.000764222 W
                Subthreshold Leakage with power gating = 0.0003514 W
                Gate Leakage = 1.6485e-05 W
                Runtime Dynamic = 0.03539 W

              Floating Point RF:
                Area = 0.0992699 mm^2
                Peak Dynamic = 0.00624154 W
                Subthreshold Leakage = 0.000435376 W
                Subthreshold Leakage with power gating = 0.000206704 W
                Gate Leakage = 8.75685e-06 W
                Runtime Dynamic = 0.00452867 W

          Instruction Scheduler:
            Area = 10.6135 mm^2
            Peak Dynamic = 119.985 W
            Subthreshold Leakage = 0.192581 W
            Subthreshold Leakage with power gating = 0.0886908 W
            Gate Leakage = 0.00650973 W
            Runtime Dynamic = 16.7051 W

              Instruction Window:
                Area = 0.601548 mm^2
                Peak Dynamic = 1.48955 W
                Subthreshold Leakage = 0.0124658 W
                Subthreshold Leakage with power gating = 0.00710224 W
                Gate Leakage = 0.000274914 W
                Runtime Dynamic = 0.251416 W

              FP Instruction Window:
                Area = 0.084547 mm^2
                Peak Dynamic = 0.391146 W
                Subthreshold Leakage = 0.0011635 W
                Subthreshold Leakage with power gating = 0.000659943 W
                Gate Leakage = 2.63293e-05 W
                Runtime Dynamic = 0.0982021 W

              ROB:
                Area = 9.92741 mm^2
                Peak Dynamic = 118.104 W
                Subthreshold Leakage = 0.178952 W
                Subthreshold Leakage with power gating = 0.0809286 W
                Gate Leakage = 0.00620849 W
                Runtime Dynamic = 16.3555 W

          Integer ALUs (Count: 9 ):
            Area = 0.34609 mm^2
            Peak Dynamic = 0.0968981 W
            Subthreshold Leakage = 0.0261022 W
            Subthreshold Leakage with power gating = 0.011746 W
            Gate Leakage = 0.000575286 W
            Runtime Dynamic = 0.133773 W

          Floating Point Units (FPUs) (Count: 2 ):
            Area = 1.11344 mm^2
            Peak Dynamic = 0.0185605 W
            Subthreshold Leakage = 0.020994 W
            Subthreshold Leakage with power gating = 0.0094473 W
            Gate Leakage = 0.000462702 W
            Runtime Dynamic = 0.141902 W

          Complex ALUs (Mul/Div) (Count: 1 ):
            Area = 0.115363 mm^2
            Peak Dynamic = 0.00300111 W
            Subthreshold Leakage = 0.00870074 W
            Subthreshold Leakage with power gating = 0.00391533 W
            Gate Leakage = 0.000191762 W
            Runtime Dynamic = 0.0915666 W

          Results Broadcast Bus:
            Area Overhead = 0.030867 mm^2
            Peak Dynamic = 0.103556 W
            Subthreshold Leakage = 0.0125437 W
            Subthreshold Leakage with power gating = 0.00564468 W
            Gate Leakage = 0.000276461 W
            Runtime Dynamic = 0.418271 W

    L2
    Area = 4.97248 mm^2
    Peak Dynamic = 0.00483762 W
    Subthreshold Leakage = 0.211997 W
    Subthreshold Leakage with power gating = 0.120751 W
    Gate Leakage = 0.00064227 W
    Runtime Dynamic = 0.00129604 W

*****************************************************************************************
Core:
      Area = 25.6912 mm^2
      Peak Dynamic = 133.106 W
      Subthreshold Leakage = 0.676327 W
      Subthreshold Leakage with power gating = 0.338249 W
      Gate Leakage = 0.0131211 W
      Runtime Dynamic = 18.5947 W

      Instruction Fetch Unit:
        Area = 1.77831 mm^2
        Peak Dynamic = 2.81285 W
[...]
                Gate Leakage = 2.68765e-06 W
                Runtime Dynamic = 0 W

              L2_Local Predictor:
                Area = 0.00299577 mm^2
                Peak Dynamic = 0.00205293 W
                Subthreshold Leakage = 0.000107724 W
                Subthreshold Leakage with power gating = 6.1471e-05 W
                Gate Leakage = 1.64109e-06 W
                Runtime Dynamic = 0 W

              Chooser:
                Area = 0.0122599 mm^2
                Peak Dynamic = 0.00687234 W
                Subthreshold Leakage = 0.000368869 W
                Subthreshold Leakage with power gating = 0.000216136 W
                Gate Leakage = 4.75216e-06 W
                Runtime Dynamic = 0 W

              RAS:
                Area = 0.00264738 mm^2
                Peak Dynamic = 0.00328372 W
                Subthreshold Leakage = 5.83929e-05 W
                Subthreshold Leakage with power gating = 3.28722e-05 W
                Gate Leakage = 9.40608e-07 W
                Runtime Dynamic = 0 W

          Instruction Buffer:
            Area = 0.00953762 mm^2
            Peak Dynamic = 0.530088 W
            Subthreshold Leakage = 0.000136711 W
            Subthreshold Leakage with power gating = 7.09986e-05 W
            Gate Leakage = 2.25735e-06 W
            Runtime Dynamic = 0 W

          Instruction Decoder:
            Area = 0.640954 mm^2
            Peak Dynamic = 0.349878 W
            Subthreshold Leakage = 0.0191833 W
            Subthreshold Leakage with power gating = 0.00863248 W
            Gate Leakage = 0.000321652 W
            Runtime Dynamic = 0 W

      Renaming Unit:
        Area = 0.398932 mm^2
        Peak Dynamic = 8.69359 W
        Subthreshold Leakage = 0.0109372 W
        Subthreshold Leakage with power gating = 0.00606856 W
        Gate Leakage = 0.000384701 W
        Runtime Dynamic = 5.20242e-09 W

          Int Front End RAT:
            Area = 0.21217 mm^2
            Peak Dynamic = 7.13042 W
            Subthreshold Leakage = 0.00602709 W
            Subthreshold Leakage with power gating = 0.00343544 W
            Gate Leakage = 0.00019896 W
            Runtime Dynamic = 0 W

          FP Front End RAT:
            Area = 0.0680121 mm^2
            Peak Dynamic = 1.35733 W
            Subthreshold Leakage = 0.00307484 W
            Subthreshold Leakage with power gating = 0.00175266 W
            Gate Leakage = 9.92553e-05 W
            Runtime Dynamic = 0 W

          Free List:
            Area = 0.102513 mm^2
            Peak Dynamic = 0.110214 W
            Subthreshold Leakage = 0.000354903 W
            Subthreshold Leakage with power gating = 0.000214298 W
            Gate Leakage = 4.37705e-06 W
            Runtime Dynamic = 0 W

      Load Store Unit:
        Area = 3.82362 mm^2
        Peak Dynamic = 0.384698 W
        Subthreshold Leakage = 0.0568103 W
        Subthreshold Leakage with power gating = 0.0282651 W
        Gate Leakage = 0.00100861 W
        Runtime Dynamic = 5.20242e-09 W

          Data Cache:
            Area = 3.1028 mm^2
            Peak Dynamic = 0.384698 W
            Subthreshold Leakage = 0.0540038 W
            Subthreshold Leakage with power gating = 0.0268431 W
            Gate Leakage = 0.000899052 W
            Runtime Dynamic = 0 W

          LoadQ:
            Area = 0.0208402 mm^2
            Peak Dynamic = 0 W
            Subthreshold Leakage = 0.000561618 W
            Subthreshold Leakage with power gating = 0.000320122 W
            Gate Leakage = 1.1987e-05 W
            Runtime Dynamic = 0 W

          StoreQ:
            Area = 0.0248506 mm^2
            Peak Dynamic = 0 W
            Subthreshold Leakage = 0.000764494 W
            Subthreshold Leakage with power gating = 0.000435762 W
            Gate Leakage = 1.54675e-05 W
            Runtime Dynamic = 0 W

      Memory Management Unit:
        Area = 0.0534534 mm^2
        Peak Dynamic = 0.0478185 W
        Subthreshold Leakage = 0.0028353 W
        Subthreshold Leakage with power gating = 0.00143848 W
        Gate Leakage = 0.000108584 W
        Runtime Dynamic = 5.20242e-09 W

          Itlb:
            Area = 0.0153781 mm^2
            Peak Dynamic = 0 W
            Subthreshold Leakage = 0.000525402 W
            Subthreshold Leakage with power gating = 0.000299479 W
            Gate Leakage = 1.04742e-05 W
            Runtime Dynamic = 0 W

          Dtlb:
            Area = 0.0218389 mm^2
            Peak Dynamic = 0 W
            Subthreshold Leakage = 0.000829526 W
            Subthreshold Leakage with power gating = 0.00047283 W
            Gate Leakage = 1.60011e-05 W
            Runtime Dynamic = 0 W

      Execution Unit:
        Area = 12.5101 mm^2
        Peak Dynamic = 119.985 W
        Subthreshold Leakage = 0.263602 W
        Subthreshold Leakage with power gating = 0.120668 W
        Gate Leakage = 0.00812329 W
        Runtime Dynamic = 0.268092 W

          Register Files:
            Area = 0.274572 mm^2
            Peak Dynamic = 0 W
            Subthreshold Leakage = 0.0011996 W
            Subthreshold Leakage with power gating = 0.000558105 W
            Gate Leakage = 2.52418e-05 W
            Runtime Dynamic = 0 W

              Integer RF:
                Area = 0.175302 mm^2
                Peak Dynamic = 0 W
                Subthreshold Leakage = 0.000764222 W
                Subthreshold Leakage with power gating = 0.0003514 W
                Gate Leakage = 1.6485e-05 W
                Runtime Dynamic = 0 W

              Floating Point RF:
                Area = 0.0992699 mm^2
                Peak Dynamic = 0 W
                Subthreshold Leakage = 0.000435376 W
                Subthreshold Leakage with power gating = 0.000206704 W
                Gate Leakage = 8.75685e-06 W
                Runtime Dynamic = 0 W

          Instruction Scheduler:
            Area = 10.6135 mm^2
            Peak Dynamic = 119.985 W
            Subthreshold Leakage = 0.192581 W
            Subthreshold Leakage with power gating = 0.0886908 W
            Gate Leakage = 0.00650973 W
            Runtime Dynamic = 0 W

              Instruction Window:
                Area = 0.601548 mm^2
                Peak Dynamic = 1.48955 W
                Subthreshold Leakage = 0.0124658 W
                Subthreshold Leakage with power gating = 0.00710224 W
                Gate Leakage = 0.000274914 W
                Runtime Dynamic = 0 W

              FP Instruction Window:
                Area = 0.084547 mm^2
                Peak Dynamic = 0.391146 W
                Subthreshold Leakage = 0.0011635 W
                Subthreshold Leakage with power gating = 0.000659943 W
                Gate Leakage = 2.63293e-05 W
                Runtime Dynamic = 0 W

              ROB:
                Area = 9.92741 mm^2
                Peak Dynamic = 118.104 W
                Subthreshold Leakage = 0.178952 W
                Subthreshold Leakage with power gating = 0.0809286 W
                Gate Leakage = 0.00620849 W
                Runtime Dynamic = 0 W

          Integer ALUs (Count: 9 ):
            Area = 0.34609 mm^2
            Peak Dynamic = 0 W
            Subthreshold Leakage = 0.0261022 W
            Subthreshold Leakage with power gating = 0.011746 W
            Gate Leakage = 0.000575286 W
            Runtime Dynamic = 0.044682 W

          Floating Point Units (FPUs) (Count: 2 ):
            Area = 1.11344 mm^2
            Peak Dynamic = 0 W
            Subthreshold Leakage = 0.020994 W
            Subthreshold Leakage with power gating = 0.0094473 W
            Gate Leakage = 0.000462702 W
            Runtime Dynamic = 0.134046 W

          Complex ALUs (Mul/Div) (Count: 1 ):
            Area = 0.115363 mm^2
            Peak Dynamic = 0 W
            Subthreshold Leakage = 0.00870074 W
            Subthreshold Leakage with power gating = 0.00391533 W
            Gate Leakage = 0.000191762 W
            Runtime Dynamic = 0.0893639 W

          Results Broadcast Bus:
            Area Overhead = 0.030867 mm^2
            Peak Dynamic = 0 W
            Subthreshold Leakage = 0.0125437 W
            Subthreshold Leakage with power gating = 0.00564468 W
            Gate Leakage = 0.000276461 W
            Runtime Dynamic = 0 W

    L2
    Area = 4.97248 mm^2
    Peak Dynamic = 0 W
    Subthreshold Leakage = 0.211997 W
    Subthreshold Leakage with power gating = 0.120751 W
    Gate Leakage = 0.00064227 W
    Runtime Dynamic = 3.40294e-08 W

*****************************************************************************************
Core:
      Area = 25.6912 mm^2
      Peak Dynamic = 130.071 W
      Subthreshold Leakage = 0.676327 W
      Subthreshold Leakage with power gating = 0.338249 W
      Gate Leakage = 0.0131211 W
      Runtime Dynamic = 0.268092 W

      Instruction Fetch Unit:
        Area = 1.77831 mm^2
        Peak Dynamic = 0.960404 W
        Subthreshold Leakage = 0.0489032 W
        Subthreshold Leakage with power gating = 0.0244982 W
        Gate Leakage = 0.00106307 W
        Runtime Dynamic = 5.20242e-09 W

          Instruction Cache:
            Area = 0.889009 mm^2
            Peak Dynamic = 0 W
            Subthreshold Leakage = 0.0224541 W
            Subthreshold Leakage with power gating = 0.0118459 W
            Gate Leakage = 0.000572546 W
            Runtime Dynamic = 0 W

          Branch Target Buffer:
            Area = 0.186524 mm^2
            Peak Dynamic = 0.059268 W
            Subthreshold Leakage = 0.00465747 W
            Subthreshold Leakage with power gating = 0.00270432 W
            Gate Leakage = 7.13769e-05 W
            Runtime Dynamic = 0 W

          Branch Predictor:
            Area = 0.036046 mm^2
            Peak Dynamic = 0.02117 W
            Subthreshold Leakage = 0.000991335 W
            Subthreshold Leakage with power gating = 0.000578338 W
            Gate Leakage = 1.31326e-05 W
            Runtime Dynamic = 0 W

              Global Predictor:
                Area = 0.0122599 mm^2
                Peak Dynamic = 0.00687234 W
                Subthreshold Leakage = 0.000368869 W
                Subthreshold Leakage with power gating = 0.000216136 W
                Gate Leakage = 4.75216e-06 W
                Runtime Dynamic = 0 W

              Local Predictor:
              L1_Local Predictor:
                Area = 0.00588309 mm^2
                Peak Dynamic = 0.0041416 W
                Subthreshold Leakage = 0.000195204 W
                Subthreshold Leakage with power gating = 0.000113194 W
                Gate Leakage = 2.68765e-06 W
                Runtime Dynamic = 0 W

              L2_Local Predictor:
                Area = 0.00299577 mm^2
                Peak Dynamic = 0.00205293 W
                Subthreshold Leakage = 0.000107724 W
                Subthreshold Leakage with power gating = 6.1471e-05 W
                Gate Leakage = 1.64109e-06 W
                Runtime Dynamic = 0 W

              Chooser:
                Area = 0.0122599 mm^2
                Peak Dynamic = 0.00687234 W
                Subthreshold Leakage = 0.000368869 W
                Subthreshold Leakage with power gating = 0.000216136 W
                Gate Leakage = 4.75216e-06 W
                Runtime Dynamic = 0 W

              RAS:
                Area = 0.00264738 mm^2
                Peak Dynamic = 0.00328372 W
                Subthreshold Leakage = 5.83929e-05 W
                Subthreshold Leakage with power gating = 3.28722e-05 W
                Gate Leakage = 9.40608e-07 W
                Runtime Dynamic = 0 W

          Instruction Buffer:
            Area = 0.00953762 mm^2
            Peak Dynamic = 0.530088 W
            Subthreshold Leakage = 0.000136711 W
            Subthreshold Leakage with power gating = 7.09986e-05 W
            Gate Leakage = 2.25735e-06 W
            Runtime Dynamic = 0 W

          Instruction Decoder:
            Area = 0.640954 mm^2
            Peak Dynamic = 0.349878 W
            Subthreshold Leakage = 0.0191833 W
            Subthreshold Leakage with power gating = 0.00863248 W
            Gate Leakage = 0.000321652 W
            Runtime Dynamic = 0 W

      Renaming Unit:
        Area = 0.398932 mm^2
        Peak Dynamic = 8.69359 W
        Subthreshold Leakage = 0.0109372 W
        Subthreshold Leakage with power gating = 0.00606856 W
        Gate Leakage = 0.000384701 W
        Runtime Dynamic = 5.20242e-09 W

          Int Front End RAT:
            Area = 0.21217 mm^2
            Peak Dynamic = 7.13042 W
            Subthreshold Leakage = 0.00602709 W
            Subthreshold Leakage with power gating = 0.00343544 W
            Gate Leakage = 0.00019896 W
            Runtime Dynamic = 0 W

          FP Front End RAT:
            Area = 0.0680121 mm^2
            Peak Dynamic = 1.35733 W
            Subthreshold Leakage = 0.00307484 W
            Subthreshold Leakage with power gating = 0.00175266 W
            Gate Leakage = 9.92553e-05 W
            Runtime Dynamic = 0 W

          Free List:
            Area = 0.102513 mm^2
            Peak Dynamic = 0.110214 W
            Subthreshold Leakage = 0.000354903 W
            Subthreshold Leakage with power gating = 0.000214298 W
            Gate Leakage = 4.37705e-06 W
            Runtime Dynamic = 0 W

      Load Store Unit:
        Area = 3.82362 mm^2
        Peak Dynamic = 0.384698 W
        Subthreshold Leakage = 0.0568103 W
        Subthreshold Leakage with power gating = 0.0282651 W
        Gate Leakage = 0.00100861 W
        Runtime Dynamic = 5.20242e-09 W

          Data Cache:
            Area = 3.1028 mm^2
            Peak Dynamic = 0.384698 W
            Subthreshold Leakage = 0.0540038 W
            Subthreshold Leakage with power gating = 0.0268431 W
            Gate Leakage = 0.000899052 W
            Runtime Dynamic = 0 W

          LoadQ:
            Area = 0.0208402 mm^2
            Peak Dynamic = 0 W
            Subthreshold Leakage = 0.000561618 W
            Subthreshold Leakage with power gating = 0.000320122 W
            Gate Leakage = 1.1987e-05 W
            Runtime Dynamic = 0 W

          StoreQ:
            Area = 0.0248506 mm^2
            Peak Dynamic = 0 W
            Subthreshold Leakage = 0.000764494 W
            Subthreshold Leakage with power gating = 0.000435762 W
            Gate Leakage = 1.54675e-05 W
            Runtime Dynamic = 0 W

      Memory Management Unit:
        Area = 0.0534534 mm^2
        Peak Dynamic = 0.0478185 W
        Subthreshold Leakage = 0.0028353 W
        Subthreshold Leakage with power gating = 0.00143848 W
        Gate Leakage = 0.000108584 W
        Runtime Dynamic = 5.20242e-09 W

          Itlb:
            Area = 0.0153781 mm^2
            Peak Dynamic = 0 W
            Subthreshold Leakage = 0.000525402 W
            Subthreshold Leakage with power gating = 0.000299479 W
            Gate Leakage = 1.04742e-05 W
            Runtime Dynamic = 0 W

          Dtlb:
            Area = 0.0218389 mm^2
            Peak Dynamic = 0 W
            Subthreshold Leakage = 0.000829526 W
            Subthreshold Leakage with power gating = 0.00047283 W
            Gate Leakage = 1.60011e-05 W
            Runtime Dynamic = 0 W

      Execution Unit:
        Area = 12.5101 mm^2
        Peak Dynamic = 119.985 W
        Subthreshold Leakage = 0.263602 W
        Subthreshold Leakage with power gating = 0.120668 W
        Gate Leakage = 0.00812329 W
        Runtime Dynamic = 0.268092 W

          Register Files:
            Area = 0.274572 mm^2
            Peak Dynamic = 0 W
            Subthreshold Leakage = 0.0011996 W
            Subthreshold Leakage with power gating = 0.000558105 W
            Gate Leakage = 2.52418e-05 W
            Runtime Dynamic = 0 W

              Integer RF:
                Area = 0.175302 mm^2
                Peak Dynamic = 0 W
                Subthreshold Leakage = 0.000764222 W
                Subthreshold Leakage with power gating = 0.0003514 W
                Gate Leakage = 1.6485e-05 W
                Runtime Dynamic = 0 W

              Floating Point RF:
                Area = 0.0992699 mm^2
                Peak Dynamic = 0 W
                Subthreshold Leakage = 0.000435376 W
                Subthreshold Leakage with power gating = 0.000206704 W
                Gate Leakage = 8.75685e-06 W
                Runtime Dynamic = 0 W

          Instruction Scheduler:
            Area = 10.6135 mm^2
            Peak Dynamic = 119.985 W
            Subthreshold Leakage = 0.192581 W
            Subthreshold Leakage with power gating = 0.0886908 W
            Gate Leakage = 0.00650973 W
            Runtime Dynamic = 0 W

              Instruction Window:
                Area = 0.601548 mm^2
                Peak Dynamic = 1.48955 W
                Subthreshold Leakage = 0.0124658 W
                Subthreshold Leakage with power gating = 0.00710224 W
                Gate Leakage = 0.000274914 W
                Runtime Dynamic = 0 W

              FP Instruction Window:
                Area = 0.084547 mm^2
                Peak Dynamic = 0.391146 W
                Subthreshold Leakage = 0.0011635 W
                Subthreshold Leakage with power gating = 0.000659943 W
                Gate Leakage = 2.63293e-05 W
                Runtime Dynamic = 0 W

              ROB:
                Area = 9.92741 mm^2
                Peak Dynamic = 118.104 W
                Subthreshold Leakage = 0.178952 W
                Subthreshold Leakage with power gating = 0.0809286 W
                Gate Leakage = 0.00620849 W
                Runtime Dynamic = 0 W

          Integer ALUs (Count: 9 ):
            Area = 0.34609 mm^2
            Peak Dynamic = 0 W
            Subthreshold Leakage = 0.0261022 W
            Subthreshold Leakage with power gating = 0.011746 W
            Gate Leakage = 0.000575286 W
            Runtime Dynamic = 0.044682 W

          Floating Point Units (FPUs) (Count: 2 ):
            Area = 1.11344 mm^2
            Peak Dynamic = 0 W
            Subthreshold Leakage = 0.020994 W
            Subthreshold Leakage with power gating = 0.0094473 W
            Gate Leakage = 0.000462702 W
            Runtime Dynamic = 0.134046 W

          Complex ALUs (Mul/Div) (Count: 1 ):
            Area = 0.115363 mm^2
            Peak Dynamic = 0 W
            Subthreshold Leakage = 0.00870074 W
            Subthreshold Leakage with power gating = 0.00391533 W
            Gate Leakage = 0.000191762 W
            Runtime Dynamic = 0.0893639 W

          Results Broadcast Bus:
            Area Overhead = 0.030867 mm^2
            Peak Dynamic = 0 W
            Subthreshold Leakage = 0.0125437 W
            Subthreshold Leakage with power gating = 0.00564468 W
            Gate Leakage = 0.000276461 W
            Runtime Dynamic = 0 W

    L2
    Area = 4.97248 mm^2
    Peak Dynamic = 0 W
    Subthreshold Leakage = 0.211997 W
    Subthreshold Leakage with power gating = 0.120751 W
    Gate Leakage = 0.00064227 W
    Runtime Dynamic = 3.40294e-08 W

*****************************************************************************************
      L3
      Area = 113.584 mm^2
      Peak Dynamic = 0.193767 W
      Subthreshold Leakage = 2.5046 W
      Subthreshold Leakage with power gating = 1.43505 W
      Gate Leakage = 0.00469644 W
      Runtime Dynamic = 0.162288 W

*****************************************************************************************
BUSES
      Area = 2.85438 mm^2
      Peak Dynamic = 0 W
      Subthreshold Leakage = 0.0243787 W
      Subthreshold Leakage with power gating = 0.0109704 W
      Gate Leakage = 0.000762709 W
      Runtime Dynamic = 0 W

      Bus: 
        Area = 2.85438 mm^2
        Peak Dynamic = 0 W
        Subthreshold Leakage = 0.0243787 W
        Subthreshold Leakage with power gating = 0.0109704 W
        Gate Leakage = 0.000762709 W
        Runtime Dynamic = 0 W

*****************************************************************************************
